FoamFile
{
    version     2.0;
    format      ascii;
    class       dictionary;
    object      autoHexMeshDict;
}

// * * * * * * * * * * * * * * * * * * * * * * * * * * * * * * * * * * * * * //

castellatedMesh true;
snap            true;
addLayers       false;


geometry
{
    box0
    {
        type searchableBox;
        min (-0.04 -0.04 0.00);
        max ( 0.24  0.04 0.12);
    }

    cantileverBeam.stl
    {
        type triSurfaceMesh;
        regions
        {
            wall_beam
            {
                name wall_beam;
            }
        }
    }

};



castellatedMeshControls
{
    maxLocalCells 3000000;

    maxGlobalCells 20000000;

    minRefinementCells 0;

    maxLoadUnbalance 0.10;

    nCellsBetweenLevels 1;

    features
    (
        {
            file "cantileverBeam.eMesh";
            level 0;
        }
    );

    refinementSurfaces
    {
        /* example try to create zones
        heater
        {
            level (1 1);
            faceZone heater;
            cellZone heater;
            cellZoneInside inside;
        }
        */

        cantileverBeam.stl
        {
            level (5 5);
        }
    }

    resolveFeatureAngle 30;

    refinementRegions
    {
        box0
        {
            mode inside;
            levels ((1.0 3));
        }

        cantileverBeam.stl
        {
            mode distance;
            levels ((0.01 4));
        }
    }

    locationInMesh ( 0.1 0 0.02 );

    allowFreeStandingZoneFaces false;
}



snapControls
{
    nSmoothPatch 3;

    tolerance 4.0;

    nSolveIter 30;

    nRelaxIter 8;

    nFeatureSnapIter 20;
}



addLayersControls
{
    relativeSizes true;

    layers
    {
        ".*[Ww]all.*"
        {
            nSurfaceLayers 3;
        }

    }

    expansionRatio 1.2;

    finalLayerThickness 0.3;

    minThickness 0.25;

    nGrow 1;

    // Advanced settings

    featureAngle 60;

    nRelaxIter 5;

    nSmoothSurfaceNormals 1;

    nSmoothNormals 3;

    nSmoothThickness 10;

    maxFaceThicknessRatio 0.5;

    maxThicknessToMedialRatio 0.3;

    minMedianAxisAngle 178;

    nBufferCellsNoExtrude 0;

    nLayerIter 50;

    nRelaxedIter 20;
}



meshQualityControls
{
    maxNonOrtho 70;

    maxBoundarySkewness 20;

    maxInternalSkewness 4;

    maxConcave 150;

    minVol 1e-30;

    minTetQuality 1e-30;

    minArea -1;

    minTwist 0.02;

    minDeterminant 0.001;

    minFaceWeight 0.05;

    minVolRatio 0.01;

    minTriangleTwist -1;

    // Advanced

    nSmoothScale 4;

    errorReduction 0.75;

    relaxed
    {
        maxNonOrtho 75;
    }

}


// Advanced

debug 0;

mergeTolerance 1E-6;


// ************************************************************************* //
