/*--------------------------------*- C++ -*----------------------------------*\
| =========                 |                                                 |
| \\      /  F ield         | OpenFOAM: The Open Source CFD Toolbox           |
|  \\    /   O peration     | Version:  2.1.x                                 |
|   \\  /    A nd           | Web:      www.OpenFOAM.org                      |
|    \\/     M anipulation  |                                                 |
\*---------------------------------------------------------------------------*/
FoamFile
{
    version     2.0;
    format      ascii;
    class       dictionary;
    object      blockMeshDict;
}
// * * * * * * * * * * * * * * * * * * * * * * * * * * * * * * * * * * * * * //

convertToMeters 0.01;

vertices
(
    (0 0 -2)
    (1 0 -2)
    (1 1 -2)
    (0 1 -2)
    (0 0 10)
    (1 0 10)
    (1 1 10)
    (0 1 10)
);

blocks
(
    hex (0 1 2 3 4 5 6 7) (9 9 120) simpleGrading (1 1 1)
);

edges
(
);

boundary
(
    pistonWall
    {
        type wall;
        faces
        (
            (0 3 2 1)
        );
    }
    linerWall
    {
        type wall;
        faces
        (
            (0 4 7 3)
            (2 6 5 1)
            (1 5 4 0)
            (3 7 6 2)
        );
    }
    cylinderTopWall
    {
        type wall;
        faces
        (
            (4 5 6 7)
        );
    }
);

mergePatchPairs
(
);

// ************************************************************************* //
