/*--------------------------------*- C++ -*----------------------------------*\
| =========                 |                                                 |
| \\      /  F ield         | OpenFOAM: The Open Source CFD Toolbox           |
|  \\    /   O peration     | Version:  2.3.0                                 |
|   \\  /    A nd           | Web:      www.OpenFOAM.org                      |
|    \\/     M anipulation  |                                                 |
\*---------------------------------------------------------------------------*/
FoamFile
{
    version     2.0;
    format      ascii;
    class       dictionary;
    object      topoSetDict;
}
// * * * * * * * * * * * * * * * * * * * * * * * * * * * * * * * * * * * * * //

actions
(
    // Get both sides of ami
    // ~~~~~~~~~~~~~~~~~~~~~

    // Create faceZone for patch couple1
    {
        name    couple1Faces;
        type    faceSet;
        action  new;
        source  patchToFace;
        sourceInfo
        {
            name    couple1;
        }
    }
    {
        name    couple1Faces;
        type    faceZoneSet;
        action  new;
        source  setToFaceZone;
        sourceInfo
        {
            faceSet couple1Faces;
        }
    }

    // Create faceZone for patch couple2
    {
        name    couple2Faces;
        type    faceSet;
        action  new;
        source  patchToFace;
        sourceInfo
        {
            name    couple2;
        }
    }
    {
        name    couple2Faces;
        type    faceZoneSet;
        action  new;
        source  setToFaceZone;
        sourceInfo
        {
            faceSet couple2Faces;
        }
    }

    // Create the barrel mesh sets

    {
        name barrelPoints;
        type pointSet;
        action new;
        source boxToPoint;
        sourceInfo
        {
            box (-10 -10 -10) (-0.1 10 0.001);
        }
    }

    {
        name barrelPoints;
        type pointZoneSet;
        action new;
        source  setToPointZone;
        sourceInfo
        {
            set barrelPoints;
        }
    }
);

// ************************************************************************* //
