/*--------------------------------*- C++ -*----------------------------------*\
| =========                 |                                                 |
| \\      /  F ield         | OpenFOAM: The Open Source CFD Toolbox           |
|  \\    /   O peration     | Version:  2.1.x                                 |
|   \\  /    A nd           | Web:      www.OpenFOAM.org                      |
|    \\/     M anipulation  |                                                 |
\*---------------------------------------------------------------------------*/
FoamFile
{
    version     2.0;
    format      ascii;
    class       dictionary;
    object      setFieldsDict;
}
// * * * * * * * * * * * * * * * * * * * * * * * * * * * * * * * * * * * * * //

defaultFieldValues
(
    volScalarFieldValue p 0
);

regions
(
    boxToCell
    {
        box (0.501 -10 -10 ) (10 10 10);

        fieldValues
        (
            volScalarFieldValue p 1
        );
    }

/*
    boxToFace
    {
        box (0.5 -10 -10 ) (10 10 10);

        fieldValues
        (
            volScalarFieldValue p 1
        );
    }
*/
);

// ************************************************************************* //
