/*--------------------------------*- C++ -*----------------------------------*\
| =========                 |                                                 |
| \\      /  F ield         | OpenFOAM: The Open Source CFD Toolbox           |
|  \\    /   O peration     | Version:  3.0.x                                 |
|   \\  /    A nd           | Web:      www.OpenFOAM.org                      |
|    \\/     M anipulation  |                                                 |
\*---------------------------------------------------------------------------*/
FoamFile
{
    version     2.0;
    format      ascii;
    class       dictionary;
    location    "constant";
    object      turbulenceProperties;
}
// * * * * * * * * * * * * * * * * * * * * * * * * * * * * * * * * * * * * * //

simulationType  LES;

LES
{
    LESModel        $__lesmodel;

    turbulence      on;

    printCoeffs     on;

    delta           $__deltamodel;

    LDKMCoeffs
    {
        filterTwice yes;
    }

    FOIWALECoeffs
    {
        Ck      0.07;
    }

    OEEVMCoeffs
    {
        Ck      0.07;
        Ce      1.048;
    }
    OEEVMMIXEDCoeffs
    {
        filter simple;
        Ck      0.07;
        Ce      1.048;
    }
    SmagorinskyCoeffs
    {
        Cd      0.025;
        Ci      0.133;
    }
    SMGCoeffs
    {
        Ck      0.07;
        Ce      1.048;
    }
    kEqnCoeffs
    {
        Ck      0.07;
        Ce      1.048;
    }
    dynamicKEqnCoeffs
    {
        filter simple;
    }

    cubeRootVolCoeffs
    {
        deltaCoeff      1;
    }

    PrandtlCoeffs
    {
        delta           cubeRootVol;
        cubeRootVolCoeffs
        {
            deltaCoeff      1;
        }

        smoothCoeffs
        {
            delta           cubeRootVol;
            cubeRootVolCoeffs
            {
                deltaCoeff      1;
            }

            maxDeltaRatio   1.1;
        }

        Cdelta          0.158;
    }

    vanDriestCoeffs
    {
        delta           cubeRootVol;
        cubeRootVolCoeffs
        {
            deltaCoeff      1;
        }

        smoothCoeffs
        {
            delta           cubeRootVol;
            cubeRootVolCoeffs
            {
                deltaCoeff      1;
            }

            maxDeltaRatio   1.1;
        }

        Aplus           26;
        Cdelta          0.158;
    }

    smoothCoeffs
    {
        delta           cubeRootVol;
        cubeRootVolCoeffs
        {
            deltaCoeff      1;
        }

        maxDeltaRatio   1.1;
    }
}


// ************************************************************************* //
