/*--------------------------------*- C++ -*----------------------------------*\
| =========                 |                                                 |
| \\      /  F ield         | OpenFOAM: The Open Source CFD Toolbox           |
|  \\    /   O peration     | Version:  2.1.0                                 |
|   \\  /    A nd           | Web:      www.OpenFOAM.org                      |
|    \\/     M anipulation  |                                                 |
\*---------------------------------------------------------------------------*/
FoamFile
{
    version     2.0;
    format      ascii;
    class       volScalarField;
    location    "0";
    object      epsilon;
}
// * * * * * * * * * * * * * * * * * * * * * * * * * * * * * * * * * * * * * //

#include "${FOAM_CASE}/setup.foam";

dimensions      [ 0 2 -2 0 0 0 0 ];

internalField   $turbulence.initialK;

boundaryField
{
    #includeEtc "caseDicts/setConstraintTypes";

    inlet
    {
        type       fixedValue;
        value      $internalField;
    }

    wall
    {
        type       kqRWallFunction;
        value      $internalField;
    }

    outlet
    {
        type        inletOutlet;
        inletValue  $internalField;
        value      uniform 0;
    }

    ambienceGroup
    {
        $outflowGroup;
    }

    farfieldGroup
    {
        type        freestream;
        freestreamValue      $internalField;
    }
}

// ************************************************************************* //
