/*--------------------------------*- C++ -*----------------------------------*\
| =========                 |                                                 |
| \\      /  F ield         | OpenFOAM: The Open Source CFD Toolbox           |
|  \\    /   O peration     | Version:  2.1.x                                 |
|   \\  /    A nd           | Web:      www.OpenFOAM.org                      |
|    \\/     M anipulation  |                                                 |
\*---------------------------------------------------------------------------*/
FoamFile
{
    version     2.0;
    format      ascii;
    class       dictionary;
    location    "constant";
    object      structuralModes_rod_wall;
}
// * * * * * * * * * * * * * * * * * * * * * * * * * * * * * * * * * * * * * //

2
(
    a
    {
        modeShape
        {
            origin  (0 0 0);
            axis    (0 0 1);
            modeType polynomial;
            coeffs  3(0 0 2);
            amplitude (0.01 0 0);
            scalingFactor 1;
        }
        frequency   40;
    }

    b
    {
        modeShape
        {
            origin  (0 0 0);
            axis    (0 0 1);
            modeType polynomial;
            coeffs  3(0 0 2);
            amplitude (0 0.01 0);
            scalingFactor 1;
        }
        frequency  40;
    }


);

// ************************************************************************* //
