/*--------------------------------*- C++ -*----------------------------------*\
| =========                 |                                                 |
| \\      /  F ield         | OpenFOAM: The Open Source CFD Toolbox           |
|  \\    /   O peration     | Version:  4.0                                   |
|   \\  /    A nd           | Web:      www.OpenFOAM.org                      |
|    \\/     M anipulation  |                                                 |
\*---------------------------------------------------------------------------*/
FoamFile
{
    version     2.0;
    format      ascii;
    class       dictionary;
    location    "constant";
    object      thermophysicalProperties;
}
// * * * * * * * * * * * * * * * * * * * * * * * * * * * * * * * * * * * * * //

thermoType
{
    type            heRhoExtThermo;
    mixture         pureMixture;
    transport       const;
    thermo          hConst;
    energy          sensibleInternalEnergy;
    equationOfState perfectGas;
    specie          specie;
}

mixture
{
    specie
    {
        nMoles          1;
        molWeight       29;
    }
    thermodynamics
    {
        Cp              1003.47;
        Hf              0;
        Sf              0;
    }
    transport
    {
        mu              0;
        Pr              1;
    }
}


// ************************************************************************* //
