/*--------------------------------*- C++ -*----------------------------------*\
| =========                 |                                                 |
| \\      /  F ield         | OpenFOAM: The Open Source CFD Toolbox           |
|  \\    /   O peration     | Version:  2.1.x                                 |
|   \\  /    A nd           | Web:      www.OpenFOAM.org                      |
|    \\/     M anipulation  |                                                 |
\*---------------------------------------------------------------------------*/
FoamFile
{
    version     2.0;
    format      ascii;
    class       dictionary;
    location    "constant";
    object      structuralModes_rod_wall;
}
// * * * * * * * * * * * * * * * * * * * * * * * * * * * * * * * * * * * * * //

1
(
    first
    {
        generateMode no;
        frequency   1;
        scalingFactor 0.1;
        modeDisplacement 170
        (
            (1 0 0)
            (1 0 0)
            (1 0 0)
            (1 0 0)
            (1 0 0)
            (1 0 0)
            (1 0 0)
            (1 0 0)
            (1 0 0)
            (1 0 0)
            (1 0 0)
            (1 0 0)
            (1 0 0)
            (1 0 0)
            (1 0 0)
            (1 0 0)
            (1 0 0)
            (1 0 0)
            (1 0 0)
            (1 0 0)
            (1 0 0)
            (1 0 0)
            (1 0 0)
            (1 0 0)
            (1 0 0)
            (1 0 0)
            (1 0 0)
            (1 0 0)
            (1 0 0)
            (1 0 0)
            (1 0 0)
            (1 0 0)
            (1 0 0)
            (1 0 0)
            (1 0 0)
            (1 0 0)
            (1 0 0)
            (1 0 0)
            (1 0 0)
            (1 0 0)
            (1 0 0)
            (1 0 0)
            (1 0 0)
            (1 0 0)
            (1 0 0)
            (1 0 0)
            (1 0 0)
            (1 0 0)
            (1 0 0)
            (1 0 0)
            (1 0 0)
            (1 0 0)
            (1 0 0)
            (1 0 0)
            (1 0 0)
            (1 0 0)
            (1 0 0)
            (1 0 0)
            (1 0 0)
            (1 0 0)
            (1 0 0)
            (1 0 0)
            (1 0 0)
            (1 0 0)
            (1 0 0)
            (1 0 0)
            (1 0 0)
            (1 0 0)
            (1 0 0)
            (1 0 0)
            (1 0 0)
            (1 0 0)
            (1 0 0)
            (1 0 0)
            (1 0 0)
            (1 0 0)
            (1 0 0)
            (1 0 0)
            (1 0 0)
            (1 0 0)
            (1 0 0)
            (1 0 0)
            (1 0 0)
            (1 0 0)
            (1 0 0)
            (1 0 0)
            (1 0 0)
            (1 0 0)
            (1 0 0)
            (1 0 0)
            (1 0 0)
            (1 0 0)
            (1 0 0)
            (1 0 0)
            (1 0 0)
            (1 0 0)
            (1 0 0)
            (1 0 0)
            (1 0 0)
            (1 0 0)
            (1 0 0)
            (1 0 0)
            (1 0 0)
            (1 0 0)
            (1 0 0)
            (1 0 0)
            (1 0 0)
            (1 0 0)
            (1 0 0)
            (1 0 0)
            (1 0 0)
            (1 0 0)
            (1 0 0)
            (1 0 0)
            (1 0 0)
            (1 0 0)
            (1 0 0)
            (1 0 0)
            (1 0 0)
            (1 0 0)
            (1 0 0)
            (1 0 0)
            (1 0 0)
            (1 0 0)
            (1 0 0)
            (1 0 0)
            (1 0 0)
            (1 0 0)
            (1 0 0)
            (1 0 0)
            (1 0 0)
            (1 0 0)
            (1 0 0)
            (1 0 0)
            (1 0 0)
            (1 0 0)
            (1 0 0)
            (1 0 0)
            (1 0 0)
            (1 0 0)
            (1 0 0)
            (1 0 0)
            (1 0 0)
            (1 0 0)
            (1 0 0)
            (1 0 0)
            (1 0 0)
            (1 0 0)
            (1 0 0)
            (1 0 0)
            (1 0 0)
            (1 0 0)
            (1 0 0)
            (1 0 0)
            (1 0 0)
            (1 0 0)
            (1 0 0)
            (1 0 0)
            (1 0 0)
            (1 0 0)
            (1 0 0)
            (1 0 0)
            (1 0 0)
            (1 0 0)
            (1 0 0)
            (1 0 0)
            (1 0 0)
            (1 0 0)
            (1 0 0)
            (1 0 0)
        );
    } 

/*
    second
    {
        generateMode no;
        generatedMode
        {
            origin  (0 0 0);
            axis    (0 0 1);
            waveLength   0.25;
            amplitude (0 0.1 0);
        }

        frequency   2;
        scalingFactor 0.1;
        modeDisplacement 170
        (
            (0 1 0)
            (0 1 0)
            (0 1 0)
            (0 1 0)
            (0 1 0)
            (0 1 0)
            (0 1 0)
            (0 1 0)
            (0 1 0)
            (0 1 0)
            (0 1 0)
            (0 1 0)
            (0 1 0)
            (0 1 0)
            (0 1 0)
            (0 1 0)
            (0 1 0)
            (0 1 0)
            (0 1 0)
            (0 1 0)
            (0 1 0)
            (0 1 0)
            (0 1 0)
            (0 1 0)
            (0 1 0)
            (0 1 0)
            (0 1 0)
            (0 1 0)
            (0 1 0)
            (0 1 0)
            (0 1 0)
            (0 1 0)
            (0 1 0)
            (0 1 0)
            (0 1 0)
            (0 1 0)
            (0 1 0)
            (0 1 0)
            (0 1 0)
            (0 1 0)
            (0 1 0)
            (0 1 0)
            (0 1 0)
            (0 1 0)
            (0 1 0)
            (0 1 0)
            (0 1 0)
            (0 1 0)
            (0 1 0)
            (0 1 0)
            (0 1 0)
            (0 1 0)
            (0 1 0)
            (0 1 0)
            (0 1 0)
            (0 1 0)
            (0 1 0)
            (0 1 0)
            (0 1 0)
            (0 1 0)
            (0 1 0)
            (0 1 0)
            (0 1 0)
            (0 1 0)
            (0 1 0)
            (0 1 0)
            (0 1 0)
            (0 1 0)
            (0 1 0)
            (0 1 0)
            (0 1 0)
            (0 1 0)
            (0 1 0)
            (0 1 0)
            (0 1 0)
            (0 1 0)
            (0 1 0)
            (0 1 0)
            (0 1 0)
            (0 1 0)
            (0 1 0)
            (0 1 0)
            (0 1 0)
            (0 1 0)
            (0 1 0)
            (0 1 0)
            (0 1 0)
            (0 1 0)
            (0 1 0)
            (0 1 0)
            (0 1 0)
            (0 1 0)
            (0 1 0)
            (0 1 0)
            (0 1 0)
            (0 1 0)
            (0 1 0)
            (0 1 0)
            (0 1 0)
            (0 1 0)
            (0 1 0)
            (0 1 0)
            (0 1 0)
            (0 1 0)
            (0 1 0)
            (0 1 0)
            (0 1 0)
            (0 1 0)
            (0 1 0)
            (0 1 0)
            (0 1 0)
            (0 1 0)
            (0 1 0)
            (0 1 0)
            (0 1 0)
            (0 1 0)
            (0 1 0)
            (0 1 0)
            (0 1 0)
            (0 1 0)
            (0 1 0)
            (0 1 0)
            (0 1 0)
            (0 1 0)
            (0 1 0)
            (0 1 0)
            (0 1 0)
            (0 1 0)
            (0 1 0)
            (0 1 0)
            (0 1 0)
            (0 1 0)
            (0 1 0)
            (0 1 0)
            (0 1 0)
            (0 1 0)
            (0 1 0)
            (0 1 0)
            (0 1 0)
            (0 1 0)
            (0 1 0)
            (0 1 0)
            (0 1 0)
            (0 1 0)
            (0 1 0)
            (0 1 0)
            (0 1 0)
            (0 1 0)
            (0 1 0)
            (0 1 0)
            (0 1 0)
            (0 1 0)
            (0 1 0)
            (0 1 0)
            (0 1 0)
            (0 1 0)
            (0 1 0)
            (0 1 0)
            (0 1 0)
            (0 1 0)
            (0 1 0)
            (0 1 0)
            (0 1 0)
            (0 1 0)
            (0 1 0)
            (0 1 0)
            (0 1 0)
            (0 1 0)
            (0 1 0)
            (0 1 0)
        );

    }

    third
    {
        generateMode no;
        generatedMode
        {
            origin  (0 0 0);
            axis    (0 0 1);
            waveLength   0.5;
            amplitude (0.05 0 0);
        }

        frequency     10;
        scalingFactor 1;
        modeDisplacement 0();
    }
    */
)

// ************************************************************************* //
