/*--------------------------------*- C++ -*----------------------------------*\
| =========                 |                                                 |
| \\      /  F ield         | OpenFOAM: The Open Source CFD Toolbox           |
|  \\    /   O peration     | Version:  2.1.x                                 |
|   \\  /    A nd           | Web:      www.OpenFOAM.org                      |
|    \\/     M anipulation  |                                                 |
\*---------------------------------------------------------------------------*/
FoamFile
{
    version     2.0;
    format      ascii;
    class       extendedFeatureEdgeMesh;
    location    "constant/extendedFeatureEdgeMesh";
    object      cubeWBoundaries.extendedFeatureEdgeMesh;
}
// * * * * * * * * * * * * * * * * * * * * * * * * * * * * * * * * * * * * * //

// points, edges, concaveStart, mixedStart, nonFeatureStart, 
// internalStart, flatStart, openStart, multipleStart, 
// normals, edgeNormals, featurePointNormals, regionEdges

8((8 -1 -1) (8 1 -1) (7.99999 -1 1) (8 0.999999 1) (-8 1 -1) (-8 -1 -1) (-8 1 1) (-8 -1 1))
8((0 1) (2 0) (3 2) (1 3) (4 5) (6 4) (7 6) (5 7))
0 0 0 8 8 8 8

12
(
(1 0 2.6226e-06)
(0 -0 -1)
(-5.96047e-08 -1 -2.98023e-07)
(1 -4.52995e-06 -1.90735e-06)
(0 0 1)
(2.6077e-08 1 2.38419e-07)
(-1 1.90735e-06 -1.19209e-06)
(-0 0 -1)
(3.35276e-08 1 1.78814e-07)
(-1 1.66893e-06 -9.53674e-07)
(0 0 1)
(-1.11759e-08 -1 8.9407e-08)
)


8
(
2(0 1)
2(0 2)
2(3 4)
2(3 5)
2(6 7)
2(6 8)
2(9 10)
2(9 11)
)


0
(
)

8(0 1 2 3 4 5 6 7)


// ************************************************************************* //
