/*--------------------------------*- C++ -*----------------------------------*\
| =========                 |                                                 |
| \\      /  F ield         | OpenFOAM: The Open Source CFD Toolbox           |
|  \\    /   O peration     | Version:  2.1.x                                 |
|   \\  /    A nd           | Web:      www.OpenFOAM.org                      |
|    \\/     M anipulation  |                                                 |
\*---------------------------------------------------------------------------*/
FoamFile
{
    version     2.0;
    format      ascii;
    class       extendedFeatureEdgeMesh;
    location    "constant/extendedFeatureEdgeMesh";
    object      pipe.extendedFeatureEdgeMesh;
}
// * * * * * * * * * * * * * * * * * * * * * * * * * * * * * * * * * * * * * //

// points, edges, concaveStart, mixedStart, nonFeatureStart, 
// internalStart, flatStart, openStart, multipleStart, 
// normals, edgeNormals, featurePointNormals, regionEdges


128
(
(-3.0721 0.939019 -0.028107)
(-3.07366 0.962252 -0.021232)
(-3.07419 0.986414 -0.018911)
(-3.06958 0.917608 -0.039272)
(-3.06619 0.898841 -0.054297)
(-3.06206 0.883439 -0.072606)
(-3.05734 0.871996 -0.093494)
(-3.05223 0.864949 -0.116158)
(-3.04692 0.862571 -0.139729)
(-3.0416 0.864952 -0.163299)
(-3.03649 0.872001 -0.185964)
(-3.03179 0.883448 -0.206852)
(-3.02767 0.898851 -0.22516)
(-3.02428 0.91762 -0.240185)
(-3.02177 0.939033 -0.25135)
(-3.02023 0.962267 -0.258225)
(-3.01971 0.986429 -0.260547)
(-3.02024 1.01059 -0.258225)
(-3.0218 1.03382 -0.25135)
(-3.02432 1.05524 -0.240185)
(-3.02771 1.074 -0.22516)
(-3.03185 1.0894 -0.206852)
(-3.03656 1.10085 -0.185964)
(-3.04167 1.10789 -0.163299)
(-3.04698 1.11027 -0.139729)
(-3.0523 1.10789 -0.116158)
(-3.0574 1.10084 -0.093494)
(-3.06211 1.0894 -0.072606)
(-3.06624 1.07399 -0.054297)
(-3.06962 1.05522 -0.039272)
(-3.07213 1.03381 -0.028107)
(-3.07367 1.01058 -0.021232)
(11 -0.020249 0.122184)
(11 -0.043696 0.115886)
(11 0.003977 0.123787)
(11 -0.065465 0.105134)
(11 -0.084718 0.090343)
(11 -0.100715 0.072079)
(11 -0.112842 0.051046)
(11 -0.120632 0.02805)
(11 -0.123787 0.003977)
(11 -0.122184 -0.020249)
(11 -0.115886 -0.043696)
(11 -0.105134 -0.065465)
(11 -0.090343 -0.084718)
(11 -0.072079 -0.100715)
(11 -0.051046 -0.112842)
(11 -0.02805 -0.120632)
(11 -0.003977 -0.123787)
(11 0.020249 -0.122184)
(11 0.043697 -0.115886)
(11 0.065465 -0.105134)
(11 0.084718 -0.090343)
(11 0.100715 -0.072079)
(11 0.112842 -0.051046)
(11 0.120632 -0.02805)
(11 0.123787 -0.003977)
(11 0.122184 0.020249)
(11 0.115886 0.043697)
(11 0.105134 0.065465)
(11 0.090343 0.084718)
(11 0.072079 0.100715)
(11 0.051045 0.112842)
(11 0.02805 0.120632)
(-3.07677 0.986418 -0.01952)
(-3.07619 0.962256 -0.02183)
(-3.07449 0.939022 -0.028671)
(-3.07173 0.917611 -0.039779)
(-3.06802 0.898843 -0.054729)
(-3.0635 0.883441 -0.072945)
(-3.05835 0.871997 -0.093727)
(-3.05275 0.86495 -0.116277)
(-3.04694 0.862571 -0.139729)
(-3.04112 0.864951 -0.16318)
(-3.03553 0.872 -0.18573)
(-3.03037 0.883446 -0.206513)
(-3.02586 0.898849 -0.224729)
(-3.02215 0.917617 -0.239678)
(-3.0194 0.939029 -0.250787)
(-3.01771 0.962263 -0.257627)
(-3.01714 0.986425 -0.259937)
(-3.01771 1.01059 -0.257627)
(-3.01941 1.03382 -0.250787)
(-3.02217 1.05523 -0.239678)
(-3.02588 1.074 -0.224729)
(-3.0304 1.0894 -0.206513)
(-3.03556 1.10085 -0.18573)
(-3.04115 1.10789 -0.16318)
(-3.04697 1.11027 -0.139729)
(-3.05278 1.10789 -0.116277)
(-3.05837 1.10084 -0.093727)
(-3.06353 1.0894 -0.072944)
(-3.06804 1.07399 -0.054729)
(-3.07175 1.05523 -0.039779)
(-3.0745 1.03381 -0.028671)
(-3.0762 1.01058 -0.02183)
(11 -0.020179 0.122195)
(11 0.004048 0.123784)
(11 -0.04363 0.115911)
(11 -0.065405 0.105172)
(11 -0.084666 0.090391)
(11 -0.100674 0.072137)
(11 -0.112813 0.05111)
(11 -0.120616 0.028119)
(11 -0.123784 0.004048)
(11 -0.122195 -0.020179)
(11 -0.115911 -0.04363)
(11 -0.105172 -0.065405)
(11 -0.090391 -0.084666)
(11 -0.072137 -0.100674)
(11 -0.05111 -0.112813)
(11 -0.028119 -0.120616)
(11 -0.004048 -0.123784)
(11 0.020179 -0.122195)
(11 0.04363 -0.115911)
(11 0.065405 -0.105172)
(11 0.084666 -0.090391)
(11 0.100674 -0.072136)
(11 0.112813 -0.05111)
(11 0.120616 -0.028119)
(11 0.123784 -0.004048)
(11 0.122195 0.020179)
(11 0.115911 0.043631)
(11 0.105172 0.065405)
(11 0.090391 0.084667)
(11 0.072136 0.100674)
(11 0.05111 0.112813)
(11 0.028119 0.120616)
)


128
(
(0 1)
(1 2)
(3 0)
(4 3)
(5 4)
(6 5)
(7 6)
(8 7)
(9 8)
(10 9)
(11 10)
(12 11)
(13 12)
(14 13)
(15 14)
(16 15)
(17 16)
(18 17)
(19 18)
(20 19)
(21 20)
(22 21)
(23 22)
(24 23)
(25 24)
(26 25)
(27 26)
(28 27)
(29 28)
(30 29)
(31 30)
(2 31)
(32 33)
(34 32)
(33 35)
(35 36)
(36 37)
(37 38)
(38 39)
(39 40)
(40 41)
(41 42)
(42 43)
(43 44)
(44 45)
(45 46)
(46 47)
(47 48)
(48 49)
(49 50)
(50 51)
(51 52)
(52 53)
(53 54)
(54 55)
(55 56)
(56 57)
(57 58)
(58 59)
(59 60)
(60 61)
(61 62)
(62 63)
(63 34)
(64 65)
(65 66)
(66 67)
(67 68)
(68 69)
(69 70)
(70 71)
(71 72)
(72 73)
(73 74)
(74 75)
(75 76)
(76 77)
(77 78)
(78 79)
(79 80)
(80 81)
(81 82)
(82 83)
(83 84)
(84 85)
(85 86)
(86 87)
(87 88)
(88 89)
(89 90)
(90 91)
(91 92)
(92 93)
(93 94)
(94 95)
(95 64)
(96 97)
(98 96)
(99 98)
(100 99)
(101 100)
(102 101)
(103 102)
(104 103)
(105 104)
(106 105)
(107 106)
(108 107)
(109 108)
(110 109)
(111 110)
(112 111)
(113 112)
(114 113)
(115 114)
(116 115)
(117 116)
(118 117)
(119 118)
(120 119)
(121 120)
(122 121)
(123 122)
(124 123)
(125 124)
(126 125)
(127 126)
(97 127)
)

0 0 0 0 0 0 128

128
(
(-0.975519 -0.000254508 -0.219915)
(-0.975518 -0.000273073 -0.219919)
(-0.975517 -0.000277955 -0.219925)
(-0.975515 -0.000287674 -0.219931)
(-0.975525 -0.000245364 -0.21989)
(-0.975518 -0.000266361 -0.21992)
(-0.975513 -0.00027636 -0.219944)
(-0.975513 -0.000276054 -0.219942)
(-0.975518 -0.000276056 -0.21992)
(-0.975513 -0.000271803 -0.21994)
(-0.975524 -0.000291796 -0.219893)
(-0.975511 -0.00025328 -0.21995)
(-0.975515 -0.000271052 -0.219932)
(-0.975517 -0.000285805 -0.219923)
(-0.975514 -0.000252629 -0.219936)
(-0.975514 -0.00025766 -0.219935)
(-0.975514 -0.000262137 -0.219935)
(-0.975513 -0.000296201 -0.219942)
(-0.975516 -0.000264707 -0.219929)
(-0.975518 -0.000248632 -0.219919)
(-0.975513 -0.00027134 -0.219941)
(-0.975519 -0.000254375 -0.219916)
(-0.975512 -0.000267538 -0.219947)
(-0.975521 -0.000259153 -0.219906)
(-0.97551 -0.00025915 -0.219956)
(-0.975522 -0.000270494 -0.219901)
(-0.975518 -0.00026211 -0.21992)
(-0.975512 -0.0002457 -0.219944)
(-0.975518 -0.000272038 -0.219919)
(-0.975518 -0.000272559 -0.219918)
(-0.975516 -0.000249858 -0.219927)
(-0.975518 -0.000294857 -0.219919)
(1 -0 0)
(1 -0 0)
(1 -0 0)
(1 -0 0)
(1 -0 0)
(1 -0 0)
(1 -0 0)
(1 -0 0)
(1 0 -0)
(1 0 -0)
(1 0 -0)
(1 0 -0)
(1 0 -0)
(1 0 -0)
(1 0 -0)
(1 0 -0)
(1 0 0)
(1 0 0)
(1 0 0)
(1 0 0)
(1 0 0)
(1 0 0)
(1 0 0)
(1 0 0)
(1 0 0)
(1 0 0)
(1 0 0)
(1 0 0)
(1 0 0)
(1 0 0)
(1 0 0)
(1 0 0)
(-0.247965 -0.0980547 0.963794)
(-0.238441 -0.290316 0.926748)
(-0.219741 -0.471411 0.854099)
(-0.192591 -0.634403 0.748627)
(-0.15804 -0.773016 0.614385)
(-0.117412 -0.881931 0.456522)
(-0.0722751 -0.956947 0.281122)
(-0.0243586 -0.995188 0.0949123)
(0.0244886 -0.995183 -0.0949254)
(0.0724305 -0.956921 -0.281169)
(0.117522 -0.8819 -0.456553)
(0.158145 -0.772979 -0.614406)
(0.192678 -0.634348 -0.748651)
(0.219797 -0.471378 -0.854103)
(0.238483 -0.290225 -0.926766)
(0.247998 -0.0979908 -0.963792)
(0.247988 0.0980538 -0.963788)
(0.238447 0.290292 -0.926754)
(0.219734 0.471425 -0.854093)
(0.192592 0.63438 -0.748646)
(0.158031 0.773036 -0.614363)
(0.117414 0.881922 -0.456539)
(0.0722683 0.956946 -0.281124)
(0.02436 0.995187 -0.0949172)
(-0.0244993 0.995179 0.0949651)
(-0.072401 0.956933 0.281136)
(-0.117535 0.881899 0.456553)
(-0.158138 0.772964 0.614426)
(-0.192672 0.634377 0.748628)
(-0.219804 0.47133 0.854128)
(-0.238484 0.29026 0.926755)
(-0.247999 0.0979981 0.963791)
(0 -0.0654474 0.997856)
(0 -0.258831 0.965923)
(0 -0.442314 0.89686)
(0 -0.608801 0.793323)
(0 -0.751846 0.659338)
(0 -0.866042 0.499971)
(0 -0.946948 0.321388)
(0 -0.99145 0.130485)
(0 -0.997856 -0.0654474)
(0 -0.965923 -0.258831)
(0 -0.89686 -0.442314)
(0 -0.793323 -0.608801)
(0 -0.659338 -0.751846)
(0 -0.499971 -0.866042)
(0 -0.321388 -0.946948)
(0 -0.130485 -0.99145)
(0 0.0654474 -0.997856)
(0 0.258831 -0.965923)
(0 0.442314 -0.89686)
(0 0.608801 -0.793323)
(0 0.751864 -0.659318)
(0 0.866032 -0.499989)
(0 0.946948 -0.321388)
(0 0.99145 -0.130485)
(-0 0.997856 0.0654474)
(-0 0.965925 0.258821)
(-0 0.896852 0.44233)
(-0 0.793339 0.608781)
(-0 0.659295 0.751885)
(-0 0.499989 0.866032)
(-0 0.321388 0.946948)
(-0 0.130485 0.99145)
)


128
(
1(0)
1(1)
1(2)
1(3)
1(4)
1(5)
1(6)
1(7)
1(8)
1(9)
1(10)
1(11)
1(12)
1(13)
1(14)
1(15)
1(16)
1(17)
1(18)
1(19)
1(20)
1(21)
1(22)
1(23)
1(24)
1(25)
1(26)
1(27)
1(28)
1(29)
1(30)
1(31)
1(32)
1(33)
1(34)
1(35)
1(36)
1(37)
1(38)
1(39)
1(40)
1(41)
1(42)
1(43)
1(44)
1(45)
1(46)
1(47)
1(48)
1(49)
1(50)
1(51)
1(52)
1(53)
1(54)
1(55)
1(56)
1(57)
1(58)
1(59)
1(60)
1(61)
1(62)
1(63)
1(64)
1(65)
1(66)
1(67)
1(68)
1(69)
1(70)
1(71)
1(72)
1(73)
1(74)
1(75)
1(76)
1(77)
1(78)
1(79)
1(80)
1(81)
1(82)
1(83)
1(84)
1(85)
1(86)
1(87)
1(88)
1(89)
1(90)
1(91)
1(92)
1(93)
1(94)
1(95)
1(96)
1(97)
1(98)
1(99)
1(100)
1(101)
1(102)
1(103)
1(104)
1(105)
1(106)
1(107)
1(108)
1(109)
1(110)
1(111)
1(112)
1(113)
1(114)
1(115)
1(116)
1(117)
1(118)
1(119)
1(120)
1(121)
1(122)
1(123)
1(124)
1(125)
1(126)
1(127)
)


0
(
)


128
(
0
1
2
3
4
5
6
7
8
9
10
11
12
13
14
15
16
17
18
19
20
21
22
23
24
25
26
27
28
29
30
31
32
33
34
35
36
37
38
39
40
41
42
43
44
45
46
47
48
49
50
51
52
53
54
55
56
57
58
59
60
61
62
63
64
65
66
67
68
69
70
71
72
73
74
75
76
77
78
79
80
81
82
83
84
85
86
87
88
89
90
91
92
93
94
95
96
97
98
99
100
101
102
103
104
105
106
107
108
109
110
111
112
113
114
115
116
117
118
119
120
121
122
123
124
125
126
127
)



// ************************************************************************* //
