/*---------------------------------------------------------------------------*\
| =========                 |                                                 |
| \\      /  F ield         | OpenFOAM: The Open Source CFD Toolbox           |
|  \\    /   O peration     | Version:  1.3                                   |
|   \\  /    A nd           | Web:      http://www.openfoam.org               |
|    \\/     M anipulation  |                                                 |
\*---------------------------------------------------------------------------*/

FoamFile
{
    version         2.0;
    format          ascii;

    root            "";
    case            "";
    instance        "";
    local           "";

    class           dictionary;
    object          blockMeshDict;
}

// * * * * * * * * * * * * * * * * * * * * * * * * * * * * * * * * * * * * * //

convertToMeters 1;

vertices        
(
    (-5 -1 -1)
    (5 -1 -1)
    (5 1 -1)
    (-5 1 -1)
    (-5 -1 1)
    (5 -1 1)
    (5 1 1)
    (-5 1 1)
);

blocks          
(
    hex (0 1 2 3 4 5 6 7) ($__cells 1 1) simpleGrading (1 1 1)
);

edges           
(
);

patches         
(
    patch sides 
    (
        (1 2 6 5)
        (0 4 7 3)
    )
    empty emptyFaces
    (
        (0 1 5 4)
        (5 6 7 4)
        (3 7 6 2)
        (0 3 2 1)
    )
);

mergePatchPairs
(
);

// ************************************************************************* //
