/*--------------------------------*- C++ -*----------------------------------*\
| =========                 |                                                 |
| \\      /  F ield         | OpenFOAM: The Open Source CFD Toolbox           |
|  \\    /   O peration     | Version:  2.1.0                                 |
|   \\  /    A nd           | Web:      www.OpenFOAM.org                      |
|    \\/     M anipulation  |                                                 |
\*---------------------------------------------------------------------------*/
FoamFile
{
    version     2.0;
    format      ascii;
    class       volScalarField;
    location    "0";
    object      nut;
}
// * * * * * * * * * * * * * * * * * * * * * * * * * * * * * * * * * * * * * //

#include "${FOAM_CASE}/setup.foam";

dimensions      [ 0 2 -1 0 0 0 0 ];

internalField   uniform 0;

boundaryField
{
    #include "${WM_PROJECT_DIR}/etc/caseDicts/setConstraintTypes";

    inletGroup
    {
        type            calculated;
        value           uniform 0;
    }

    slipGroup
    {
        type slip;
    }

    wallGroup
    {
        type            $:turbulence.wallFunctions.nut;
        value           uniform 0;
        $:turbulence.constants;
    }

    movingWallGroup
    {
        $wallGroup;
    }

    outflowGroup
    {
        type            calculated;
        value           uniform 0;
    }

    ambienceGroup
    {
        $outflowGroup;
    }

    farfieldGroup
    {
        $outflowGroup;
    }
}

// ************************************************************************* //
