/*--------------------------------*- C++ -*----------------------------------*\
| =========                 |                                                 |
| \\      /  F ield         | OpenFOAM: The Open Source CFD Toolbox           |
|  \\    /   O peration     | Version:  1.6                                   |
|   \\  /    A nd           | Web:      www.OpenFOAM.org                      |
|    \\/     M anipulation  |                                                 |
\*---------------------------------------------------------------------------*/
FoamFile
{
    version     2.0;
    format      ascii;
    class       dictionary;
    location    "system";
    object      controlDict;
}
// * * * * * * * * * * * * * * * * * * * * * * * * * * * * * * * * * * * * * //

startFrom       startTime;

startTime       0;

stopAt          endTime;

endTime         2000;

deltaT          1;

writeControl    timeStep;

writeInterval   100;

purgeWrite      3;

writeFormat     ascii;

writePrecision  6;

writeCompression uncompressed;

timeFormat      general;

timePrecision   6;

runTimeModifiable yes;

functions
(
/*
    forces
    {
        type forces;
        functionObjectLibs ("libforces.so");
        patches (WALL_BLADE);
        pName p;
        Uname U;
        rhoName rhoInf;
        rhoInf 1025;
        CofR (0 0 0);
        outputControl timeStep;
        outputInterval 1;
    }

    probes
    {
        type            probes;
        functionObjectLibs ("libsampling.so");
        enabled         true;
        outputControl   timeStep;
        outputInterval  1;
        probeLocations
        (
        );

        fields
        (
            p
        );
    }

    pressureDrop
    {
        functionObjectLibs ("libutilityFunctionObjects.so");
        type coded;
        redirectType pressureLoss;
        outputControl timeStep;
        outputInterval  10;
        code
        #{
            //regExp("outlet",true).search(patchName)
            label inletID = -1;
            label outletID = -1;
            forAll ( mesh().boundaryMesh().names(), nameI )
            {
                word patchName = mesh().boundaryMesh().names()[nameI];
                if ( regExp("inlet",true).search(patchName) )
                {
                    inletID = mesh().boundaryMesh().findPatchID(patchName);
                }
                if ( regExp("outlet",true).search(patchName) )
                {
                    outletID = mesh().boundaryMesh().findPatchID(patchName);
                }
            }

            if ( (inletID >= 0) && (outletID >= 0) )
            {
                const scalar rho = 1.25;

                const volScalarField& p = mesh().lookupObject<volScalarField>("p");
                const volVectorField& U = mesh().lookupObject<volVectorField>("U");
                const surfaceScalarField& phi = mesh().lookupObject<surfaceScalarField>("phi");

                const fvPatchScalarField& pIn = p.boundaryField()[inletID];
                const fvsPatchScalarField& phiIn = phi.boundaryField()[inletID];
                const fvPatchVectorField& UIn = U.boundaryField()[inletID];

                const fvPatchScalarField& pOut = p.boundaryField()[outletID];
                const fvsPatchScalarField& phiOut = phi.boundaryField()[outletID];
                const fvPatchVectorField& UOut = U.boundaryField()[outletID];

                scalarField pTotIn = 0.5*rho*magSqr(UIn) + pIn;
                scalar pTotMfaIn = 1/gSum(phiIn)*gSum(phiIn*pTotIn);

                scalarField pTotOut = 0.5*rho*magSqr(UOut) + pOut;
                scalar pTotMfaOut = 1/(SMALL+gSum(phiOut)*gSum(phiOut*pTotOut));

                Info << "Static pressure drop = " << average(pIn)-average(pOut) << nl
                     << "Total pressure loss  = " << pTotMfaIn - pTotMfaOut << nl << endl;
            }
        #};
    }
*/

);

// ************************************************************************* //
