/*--------------------------------*- C++ -*----------------------------------*\
| =========                 |                                                 |
| \\      /  F ield         | OpenFOAM: The Open Source CFD Toolbox           |
|  \\    /   O peration     | Version:  2.1.x                                 |
|   \\  /    A nd           | Web:      www.OpenFOAM.org                      |
|    \\/     M anipulation  |                                                 |
\*---------------------------------------------------------------------------*/
FoamFile
{
    version     2.0;
    format      ascii;
    class       dictionary;
    location    "constant";
    object      boundaryConditions;
}
// * * * * * * * * * * * * * * * * * * * * * * * * * * * * * * * * * * * * * //

#include "$FOAM_CASE/setup.foam"

    walls
    {
        p_rgh
        {
            type            fixedFluxPressure;
            value           uniform 0;
        };

        alpha1
        {
            type            zeroGradient;
        };

    };

    default
    {
        $..walls;
    };

    fixedInlet
    {
        p_rgh
        {
            type             fixedFluxPressure;
            value            uniform 0;
        };

        alpha1
        {
            type            fixedValue;
            value           uniform 0;
        };

    };

    freeSurfaceOutlet
    {
        U
        {
            type            outletPhaseMeanVelocity;
            alpha           alpha1;
            Umean           $:velocity.reference;
            value           $:velocity.ambient;
        };

        p_rgh
        {
            type            zeroGradient;
        };

        alpha1
        {
            type            zeroGradient;
        };
    };

    pressureOutlet
    {
        $freeSurfaceOutlet;
    };

    totalPressure
    {   
        U
        {
            type            pressureInletOutletVelocity;
            phi             phi;
            tangentialVelocity  $:velocity.ambient;
            value               $:velocity.ambient;
        };

        p_rgh
        {
            type            totalPressure;
            gamma           1;
            value           $:pressure.ambient;
            p0              $:pressure.ambient;
        };

        alpha1
        {
            type            inletOutlet;
            inletValue      uniform 0;
            value           uniform 0;
        };
    };

    slipWalls
    {
    };

    movingWalls
    {
        $..walls;
    };

    freestream
    {
    };
// ************************************************************************* //
