/*--------------------------------*- C++ -*----------------------------------*\
| =========                 |                                                 |
| \\      /  F ield         | OpenFOAM: The Open Source CFD Toolbox           |
|  \\    /   O peration     | Version:  2.0.1                                 |
|   \\  /    A nd           | Web:      www.OpenFOAM.com                      |
|    \\/     M anipulation  |                                                 |
\*---------------------------------------------------------------------------*/
FoamFile
{
    version     2.0;
    format      ascii;
    class       dictionary;
    location    "system";
    object      controlDict;
}
// * * * * * * * * * * * * * * * * * * * * * * * * * * * * * * * * * * * * * //

#includeEtc     "etc/FOIincompressibleTurbulence"

application     taylorGreenVortex;

startFrom       startTime;

startTime       0;

stopAt          endTime;

endTime         $__endtime;

deltaT          $__dt;

writeControl    adjustableRunTime;

writeInterval   1.0;

purgeWrite      0;

writeFormat     ascii;

writePrecision  12;

writeCompression off;

timeFormat      general;

timePrecision   12;

runTimeModifiable true;

adjustTimeStep  yes;

maxCo           0.75;

functions
{
    #includeFunc minMaxComponents(fields=(errorU));
    #includeFunc Q;
    #includeFunc Lambda2;
    #includeFunc vorticity;
};


// ************************************************************************* //
