/*--------------------------------*- C++ -*----------------------------------*\
| =========                 |                                                 |
| \\      /  F ield         | OpenFOAM: The Open Source CFD Toolbox           |
|  \\    /   O peration     | Version:  2.0.1                                 |
|   \\  /    A nd           | Web:      www.OpenFOAM.com                      |
|    \\/     M anipulation  |                                                 |
\*---------------------------------------------------------------------------*/
FoamFile
{
    version     2.0;
    format      ascii;
    class       dictionary;
    location    "system";
    object      fvSolution;
}
// * * * * * * * * * * * * * * * * * * * * * * * * * * * * * * * * * * * * * //

defaultSolvers
{
    gamg
    {
        solver          GAMG;
        tolerance       1e-08;
        relTol          0.01;
        smoother        GaussSeidel;
        cacheAgglomeration true;
        nCellsInCoarsestLevel 20;
        agglomerator    faceAreaPair;
        mergeLevels     1;
    }
    pcg
    {
        solver          PCG;
        preconditioner  DIC;
        tolerance       1e-06;
        relTol          0.01;
    }
    smoothSolver
    {
        solver          smoothSolver;
        smoother        GaussSeidel;
        nSweeps         2;
        tolerance       1e-07;
        relTol          0.1;
    }
    pbicg
    {
        solver          PBiCG;
        preconditioner  DILU;
        tolerance       1e-08;
        relTol          0.01;
    }
}

solvers
{
    p
    {
		$:defaultSolvers.gamg
        tolerance       1e-07;
        relTol          0.01;
    }

    pFinal
    {
        $p;
        relTol          0.0;
    }

    U
    {
        $:defaultSolvers.pbicg
    }
    UFinal
    {
        $U;
        relTol          0.0;
    }

    "k.*"
    {
        $:defaultSolvers.pbicg
    }
}

"(PIMPLE|PISO)"
{
    nCorrectors     2;
    nNonOrthogonalCorrectors 3;
    pRefCell        0;
    pRefValue       0;
}


// ************************************************************************* //
