/*--------------------------------*- C++ -*----------------------------------*\
| =========                 |                                                 |
| \\      /  F ield         | OpenFOAM: The Open Source CFD Toolbox           |
|  \\    /   O peration     | Version:  3.0.x                                 |
|   \\  /    A nd           | Web:      www.OpenFOAM.org                      |
|    \\/     M anipulation  |                                                 |
\*---------------------------------------------------------------------------*/
FoamFile
{
    version     2.0;
    format      ascii;
    class       dictionary;
    object      sampleDict;
}
// * * * * * * * * * * * * * * * * * * * * * * * * * * * * * * * * * * * * //

type sets;
libs ("libsampling.so");

setFormat raw;

surfaceFormat vtk;

formatOptions
{
}

interpolationScheme cellPoint;

fields
(
    U
    k
);

sets
(
    horisontal
    {
        type        midPoint;
        axis        xyz;

        start       (0.0 0.5 0.5);
        end         (1.0 0.5 0.5);
    }

    vertical
    {
        type        midPoint;
        axis        xyz;

        //- cavity
        start       (0.5 0.0 0.5);
        end         (0.5 1.0 0.5);
    }
);


surfaces
(
);


// *********************************************************************** //
