/*--------------------------------*- C++ -*----------------------------------*\
| =========                 |                                                 |
| \\      /  F ield         | OpenFOAM: The Open Source CFD Toolbox           |
|  \\    /   O peration     | Version:  1.6                                   |
|   \\  /    A nd           | Web:      www.OpenFOAM.org                      |
|    \\/     M anipulation  |                                                 |
\*---------------------------------------------------------------------------*/
FoamFile
{
    version     2.0;
    format      ascii;
    class       dictionary;
    location    "system";
    object      fvSchemes;
}
// * * * * * * * * * * * * * * * * * * * * * * * * * * * * * * * * * * * * * //

Correction          corrected; //limited 0.33;
ConvectionModel     bounded Gauss;

ddtSchemes
{
    default         steadyState;
}

gradSchemes
{
    default         Gauss linear;
    grad(p)         Gauss linear;
    grad(U)         cellLimited Gauss linear 1;
}

divSchemes
{
<<<<<<< HEAD:templates/new/simpleFoam/system/fvSchemes
    default             $divMethod upwind;
    div(phi,U)          $divMethod linearUpwindV grad(U);
    turbulence          $divMethod linearUpwind gradLimiter;
=======
    //default             $ConvectionModel upwind;
    div(phi,U)          $ConvectionModel linearUpwind grad(U);

    turbulence          $ConvectionModel linearUpwind grad(U);
>>>>>>> 13a7f324f564b969e75c654b88f95378f0dc2c48:templates/NEW/Steady/system/fvSchemes
    div(phi,k)          $turbulence;
    div(phi,epsilon)    $turbulence;
    div(phi,omega)      $turbulence;
    div(phi,nuTilda)    $turbulence;
<<<<<<< HEAD:templates/new/simpleFoam/system/fvSchemes
=======

>>>>>>> 13a7f324f564b969e75c654b88f95378f0dc2c48:templates/NEW/Steady/system/fvSchemes
    div(R)              Gauss linear;
    div((nuEff*dev(T(grad(U))))) Gauss linear;
}

laplacianSchemes
{
    default                 Gauss linear $Correction;
}

interpolationSchemes
{
    default         linear;
}

snGradSchemes
{
    default         $Correction;
}

fluxRequired
{
    default         no;
    p;
    pcorr;
    p_rgh;
    Phi;
}

// ************************************************************************* //
