
/*--------------------------------*- C++ -*----------------------------------*\
|==========                 |                                                 |
| \      /  F ield         | OpenFOAM: The Open Source CFD Toolbox           |
|  \    /   O peration     | Version:  2.0.0                                 |
|   \  /    A nd           | Web:      www.OpenFOAM.org                      |
|    \/     M anipulation  |                                                 |
\*---------------------------------------------------------------------------*/
FoamFile
{
    version     2.0;
    format      ascii;
    class       dictionary;
    object      blockMeshDict;
}
// * * * * * * * * * * * * * * * * * * * * * * * * * * * * * * * * * * * * * //

convertToMeters 1.0;

xMin -30;
xMax  50;
yMin   0;
yMax   1;
zMin -30;
zMax  40;

vertices
(
    ( $xMin $yMin $zMin )
    ( $xMax $yMin $zMin )
    ( $xMax $yMax $zMin )
    ( $xMin $yMax $zMin )
    ( $xMin $yMin $zMax )
    ( $xMax $yMin $zMax )
    ( $xMax $yMax $zMax )
    ( $xMin $yMax $zMax )
);

blocks
(
    hex (0 1 2 3 4 5 6 7) (80 1  60) simpleGrading (1 1 1)
);

edges ();
boundary
(
    front
    {
        type symmetryPlane;
        faces
        (
            (3 7 6 2)
        );
    }
    back
    {
        type symmetryPlane;
        faces
        (
            (1 5 4 0)
        );
    }
    inlet
    {
        type patch;
        faces
        (
            (0 4 7 3)
        );
    }
    outlet
    {
        type patch;
        faces
        (
            (2 6 5 1)
        );
    }
    botWall
    {
        type wall;
        faces
        (
            (0 3 2 1)
        );
    }

    topWall
    {
        type wall;
        faces
        (
            (4 5 6 7)
        );
    }
);

mergePatchPairs ();

