/*--------------------------------*- C++ -*----------------------------------*\
| =========                 |                                                 |
| \\      /  F ield         | OpenFOAM: The Open Source CFD Toolbox           |
|  \\    /   O peration     | Version:  1.6                                   |
|   \\  /    A nd           | Web:      www.OpenFOAM.org                      |
|    \\/     M anipulation  |                                                 |
\*---------------------------------------------------------------------------*/
FoamFile
{
    version     2.0;
    format      ascii;
    class       dictionary;
    location    "system";
    object      fvSolution;
}
// * * * * * * * * * * * * * * * * * * * * * * * * * * * * * * * * * * * * * //

defaultSolvers
{
    gamg
    {
        solver          GAMG;
        tolerance       1e-08;
        relTol          0.01;
        smoother        GaussSeidel;
        cacheAgglomeration true;
        nCellsInCoarsestLevel 20;
        agglomerator    faceAreaPair;
        mergeLevels     1;
    }
    pcg
    {
        solver          PCG;
        preconditioner  DIC;
        tolerance       1e-06;
        relTol          0.01;
    }
    smoothSolver
    {
        solver          smoothSolver;
        smoother        GaussSeidel;
        nSweeps         2;
        tolerance       1e-07;
        relTol          0.1;
    }
    pbicg
    {
        solver          PBiCG;
        preconditioner  DILU;
        tolerance       1e-08;
        relTol          0.01;
    }
}

solvers
{
    p
    {
        $:defaultSolvers.gamg;
    }

    U
    {
        $:defaultSolvers.pbicg;
    }

    "(k|epsilon|omega|nuTilda)"
    {
        $:defaultSolvers.pbicg;
    }

    /* For transient solvers */
    pFinal
    {
        $p;
        relTol 0;
    }

    UFinal
    {
        $U;
        relTol 0;
    }

    "(k|epsilon|omega|nuTilda)Final"
    {
        $:defaultSolvers.pbicg;
    }

    Phi
    {
        $p;
    }
}

SIMPLE
{
}

potentialFlow
{
}

PISO
{
}

PIMPLE
{
}

relaxationFactors
{
}

// ************************************************************************* //
