FoamFile
{
    version     2.0;
    format      ascii;
    class       dictionary;
    object      autoHexMeshDict;
}

// * * * * * * * * * * * * * * * * * * * * * * * * * * * * * * * * * * * * * //

castellatedMesh true;
snap            true;
addLayers       true;


geometry
{
    refbox
    {
        type searchableBox;
        min  ( -1.2  -1 -1);
        max  (  3.2   1  1);
    }

    refbox0
    {
        type searchableBox;
        min  ( -1 -1 -0.75);
        max  (  3  1  0.75);
    }

    refbox1
    {
        type searchableBox;
        min  (-0.4 -1 -0.4);
        max  ( 2    1  0.4);
    }

    refbox2
    {
        type searchableBox;
        min  (-0.2 -1 -0.2);
        max  (  1   1  0.2);
    }

    refbox3
    {
        type searchableBox;
        min  (-0.075 -1 -0.1);
        max  ( 0.5    1  0.1);
    }

    refbox4
    {
        type searchableBox;
        min  (-0.0    -1 -0.04);
        max  ( 0.45    1  0.04);
    }

    cylinderWall_1
    {
        type searchableCylinder;
        point1 (0 -10 0);
        point2 (0  10 0);
        radius  0.028575;
    }

    cylinderWall_2
    {
        type searchableCylinder;
        point1 (0.268605 -10 0);
        point2 (0.268605  10 0);
        radius  0.028575;
    }
};



castellatedMeshControls
{
    maxLocalCells 3000000;

    maxGlobalCells 100000000;

    minRefinementCells 10;

    maxLoadUnbalance 0.10;

    nCellsBetweenLevels 3;

    features
    (
    );

    refinementSurfaces
    {
       cylinderWall_1
        {
            level (7 7);
            patchInfo
            {
                type wall;
                inGroups (wallGroup);
            }
        }

        cylinderWall_2
        {
            level (7 7);
            patchInfo
            {
                type wall;
                inGroups (wallGroup);
            }
        }
    }

    resolveFeatureAngle 30;

    refinementRegions
    {
        refbox
        {
            mode inside;
            levels ((1.0 1));
        }
        refbox0
        {
            mode inside;
            levels ((1.0 2));
        }
        refbox1
        {
            mode inside;
            levels ((1.0 3));
        }
        refbox2
        {
            mode inside;
            levels ((1.0 4));
        }
        refbox3
        {
            mode inside;
            levels ((1.0 5));
        }

        cylinderWall_1
        {
            mode distance;
            levels ((0.005 7) (0.025 6));
        }

        cylinderWall_2
        {
            mode distance;
            levels ((0.005 7) (0.025 6));
        }
    }

    locationInMesh ( 1 0 0 );

    allowFreeStandingZoneFaces true;
}



snapControls
{
    nSmoothPatch 3;

    tolerance 2.0;

    nSolveIter 30;

    nRelaxIter 5;

    nFeatureSnapIter 10;

    implicitFeatureSnap false;

    explicitFeatureSnap true;

    multiRegionFeatureSnap false;
}



addLayersControls
{
    relativeSizes true;

    // Layer thickness specification. This can be specified in one of four ways
    // - expansionRatio and finalLayerThickness (cell nearest internal mesh)
    // - expansionRatio and firstLayerThickness (cell on surface)
    // - overall thickness and firstLayerThickness
    // - overall thickness and finalLayerThickness

    expansionRatio 1.1;
    finalLayerThickness 0.6;
    //firstLayerThickness 0.1;
    //thickness 0.5;

    minThickness 0.1;

    layers
    {
        wallGroup
        {
            nSurfaceLayers 4;
        }
    }

    nGrow 1;

    // Advanced settings

    featureAngle 60;

    slipFeatureAngle 30;

    nRelaxIter 5;

    nSmoothSurfaceNormals 1;

    nSmoothNormals 3;

    nSmoothThickness 10;

    maxFaceThicknessRatio 0.5;

    maxThicknessToMedialRatio 0.3;

    minMedianAxisAngle 150; //90;

    nBufferCellsNoExtrude 0;

    nLayerIter 50;

    nRelaxedIter 20;
}



meshQualityControls
{
    maxNonOrtho 70;

    maxBoundarySkewness 20;

    maxInternalSkewness 4;

    maxConcave 80;

    minVol 1e-30;

    minTetQuality -1e30; //1e-9;

    minArea -1;

    minTwist 0.05;

    minDeterminant 0.001;

    minFaceWeight 0.05;

    minVolRatio 0.01;

    minTriangleTwist -1;

    // Advanced

    nSmoothScale 4;

    errorReduction 0.75;

    relaxed
    {
        maxNonOrtho 80;
    }

}


// Advanced

debug 0;

mergeTolerance 1E-6;


// ************************************************************************* //
