/*--------------------------------*- C++ -*----------------------------------*\
| =========                 |                                                 |
| \\      /  F ield         | OpenFOAM: The Open Source CFD Toolbox           |
|  \\    /   O peration     | Version:  2.1.x                                 |
|   \\  /    A nd           | Web:      www.OpenFOAM.org                      |
|    \\/     M anipulation  |                                                 |
\*---------------------------------------------------------------------------*/
FoamFile
{
    version     2.0;
    format      ascii;
    class       dictionary;
    location    "constant";
    object      structuralModes_rod_wall;
}
// * * * * * * * * * * * * * * * * * * * * * * * * * * * * * * * * * * * * * //

2
(
    a
    {
        modeShape
        {
            modeType interpolated; //rigid;
            amplitude (1 0 0);
            scalingFactor 1.1284;
            modeDisplacement
            368
            (
            (1 0 0)
            (1 0 0)
            (1 0 0)
            (1 0 0)
            (1 0 0)
            (1 0 0)
            (1 0 0)
            (1 0 0)
            (1 0 0)
            (1 0 0)
            (1 0 0)
            (1 0 0)
            (1 0 0)
            (1 0 0)
            (1 0 0)
            (1 0 0)
            (1 0 0)
            (1 0 0)
            (1 0 0)
            (1 0 0)
            (1 0 0)
            (1 0 0)
            (1 0 0)
            (1 0 0)
            (1 0 0)
            (1 0 0)
            (1 0 0)
            (1 0 0)
            (1 0 0)
            (1 0 0)
            (1 0 0)
            (1 0 0)
            (1 0 0)
            (1 0 0)
            (1 0 0)
            (1 0 0)
            (1 0 0)
            (1 0 0)
            (1 0 0)
            (1 0 0)
            (1 0 0)
            (1 0 0)
            (1 0 0)
            (1 0 0)
            (1 0 0)
            (1 0 0)
            (1 0 0)
            (1 0 0)
            (1 0 0)
            (1 0 0)
            (1 0 0)
            (1 0 0)
            (1 0 0)
            (1 0 0)
            (1 0 0)
            (1 0 0)
            (1 0 0)
            (1 0 0)
            (1 0 0)
            (1 0 0)
            (1 0 0)
            (1 0 0)
            (1 0 0)
            (1 0 0)
            (1 0 0)
            (1 0 0)
            (1 0 0)
            (1 0 0)
            (1 0 0)
            (1 0 0)
            (1 0 0)
            (1 0 0)
            (1 0 0)
            (1 0 0)
            (1 0 0)
            (1 0 0)
            (1 0 0)
            (1 0 0)
            (1 0 0)
            (1 0 0)
            (1 0 0)
            (1 0 0)
            (1 0 0)
            (1 0 0)
            (1 0 0)
            (1 0 0)
            (1 0 0)
            (1 0 0)
            (1 0 0)
            (1 0 0)
            (1 0 0)
            (1 0 0)
            (1 0 0)
            (1 0 0)
            (1 0 0)
            (1 0 0)
            (1 0 0)
            (1 0 0)
            (1 0 0)
            (1 0 0)
            (1 0 0)
            (1 0 0)
            (1 0 0)
            (1 0 0)
            (1 0 0)
            (1 0 0)
            (1 0 0)
            (1 0 0)
            (1 0 0)
            (1 0 0)
            (1 0 0)
            (1 0 0)
            (1 0 0)
            (1 0 0)
            (1 0 0)
            (1 0 0)
            (1 0 0)
            (1 0 0)
            (1 0 0)
            (1 0 0)
            (1 0 0)
            (1 0 0)
            (1 0 0)
            (1 0 0)
            (1 0 0)
            (1 0 0)
            (1 0 0)
            (1 0 0)
            (1 0 0)
            (1 0 0)
            (1 0 0)
            (1 0 0)
            (1 0 0)
            (1 0 0)
            (1 0 0)
            (1 0 0)
            (1 0 0)
            (1 0 0)
            (1 0 0)
            (1 0 0)
            (1 0 0)
            (1 0 0)
            (1 0 0)
            (1 0 0)
            (1 0 0)
            (1 0 0)
            (1 0 0)
            (1 0 0)
            (1 0 0)
            (1 0 0)
            (1 0 0)
            (1 0 0)
            (1 0 0)
            (1 0 0)
            (1 0 0)
            (1 0 0)
            (1 0 0)
            (1 0 0)
            (1 0 0)
            (1 0 0)
            (1 0 0)
            (1 0 0)
            (1 0 0)
            (1 0 0)
            (1 0 0)
            (1 0 0)
            (1 0 0)
            (1 0 0)
            (1 0 0)
            (1 0 0)
            (1 0 0)
            (1 0 0)
            (1 0 0)
            (1 0 0)
            (1 0 0)
            (1 0 0)
            (1 0 0)
            (1 0 0)
            (1 0 0)
            (1 0 0)
            (1 0 0)
            (1 0 0)
            (1 0 0)
            (1 0 0)
            (1 0 0)
            (1 0 0)
            (1 0 0)
            (1 0 0)
            (1 0 0)
            (1 0 0)
            (1 0 0)
            (1 0 0)
            (1 0 0)
            (1 0 0)
            (1 0 0)
            (1 0 0)
            (1 0 0)
            (1 0 0)
            (1 0 0)
            (1 0 0)
            (1 0 0)
            (1 0 0)
            (1 0 0)
            (1 0 0)
            (1 0 0)
            (1 0 0)
            (1 0 0)
            (1 0 0)
            (1 0 0)
            (1 0 0)
            (1 0 0)
            (1 0 0)
            (1 0 0)
            (1 0 0)
            (1 0 0)
            (1 0 0)
            (1 0 0)
            (1 0 0)
            (1 0 0)
            (1 0 0)
            (1 0 0)
            (1 0 0)
            (1 0 0)
            (1 0 0)
            (1 0 0)
            (1 0 0)
            (1 0 0)
            (1 0 0)
            (1 0 0)
            (1 0 0)
            (1 0 0)
            (1 0 0)
            (1 0 0)
            (1 0 0)
            (1 0 0)
            (1 0 0)
            (1 0 0)
            (1 0 0)
            (1 0 0)
            (1 0 0)
            (1 0 0)
            (1 0 0)
            (1 0 0)
            (1 0 0)
            (1 0 0)
            (1 0 0)
            (1 0 0)
            (1 0 0)
            (1 0 0)
            (1 0 0)
            (1 0 0)
            (1 0 0)
            (1 0 0)
            (1 0 0)
            (1 0 0)
            (1 0 0)
            (1 0 0)
            (1 0 0)
            (1 0 0)
            (1 0 0)
            (1 0 0)
            (1 0 0)
            (1 0 0)
            (1 0 0)
            (1 0 0)
            (1 0 0)
            (1 0 0)
            (1 0 0)
            (1 0 0)
            (1 0 0)
            (1 0 0)
            (1 0 0)
            (1 0 0)
            (1 0 0)
            (1 0 0)
            (1 0 0)
            (1 0 0)
            (1 0 0)
            (1 0 0)
            (1 0 0)
            (1 0 0)
            (1 0 0)
            (1 0 0)
            (1 0 0)
            (1 0 0)
            (1 0 0)
            (1 0 0)
            (1 0 0)
            (1 0 0)
            (1 0 0)
            (1 0 0)
            (1 0 0)
            (1 0 0)
            (1 0 0)
            (1 0 0)
            (1 0 0)
            (1 0 0)
            (1 0 0)
            (1 0 0)
            (1 0 0)
            (1 0 0)
            (1 0 0)
            (1 0 0)
            (1 0 0)
            (1 0 0)
            (1 0 0)
            (1 0 0)
            (1 0 0)
            (1 0 0)
            (1 0 0)
            (1 0 0)
            (1 0 0)
            (1 0 0)
            (1 0 0)
            (1 0 0)
            (1 0 0)
            (1 0 0)
            (1 0 0)
            (1 0 0)
            (1 0 0)
            (1 0 0)
            (1 0 0)
            (1 0 0)
            (1 0 0)
            (1 0 0)
            (1 0 0)
            (1 0 0)
            (1 0 0)
            (1 0 0)
            (1 0 0)
            (1 0 0)
            (1 0 0)
            (1 0 0)
            (1 0 0)
            (1 0 0)
            (1 0 0)
            (1 0 0)
            (1 0 0)
            (1 0 0)
            (1 0 0)
            (1 0 0)
            (1 0 0)
            (1 0 0)
            (1 0 0)
            (1 0 0)
            (1 0 0)
            (1 0 0)
            (1 0 0)
            (1 0 0)
            (1 0 0)
            (1 0 0)
            (1 0 0)
            (1 0 0)
            (1 0 0)
            (1 0 0)
            (1 0 0)
            (1 0 0)
            (1 0 0)
            (1 0 0)
            (1 0 0)
            (1 0 0)
            (1 0 0)
            (1 0 0)
            (1 0 0)
            (1 0 0)
            (1 0 0)
            (1 0 0)
            (1 0 0)
            );
        }
        frequency   20;
        damping 1e-2;
    }

    b
    {
        modeShape
        {
            modeType rigid;
            amplitude (0 0 1);
            scalingFactor 1.1284;
        }
        frequency  20;
        damping 1e-2;
    }


);

// ************************************************************************* //
