/*--------------------------------*- C++ -*----------------------------------*\
| =========                 |                                                 |
| \\      /  F ield         | OpenFOAM: The Open Source CFD Toolbox           |
|  \\    /   O peration     | Version:  2.1.0                                 |
|   \\  /    A nd           | Web:      www.OpenFOAM.org                      |
|    \\/     M anipulation  |                                                 |
\*---------------------------------------------------------------------------*/
FoamFile
{
    version     2.0;
    format      ascii;
    class       volScalarField;
    location    "0";
    object      p;
}
// * * * * * * * * * * * * * * * * * * * * * * * * * * * * * * * * * * * * * //

#include "${FOAM_CASE}/setup.foam";

dimensions      [ 1 -1 -2 0 0 0 0 ];

internalField   uniform $pressure.reference;

boundaryField
{
    ".*"
    {
        type zeroGradient;
    }

    #includeEtc "caseDicts/setConstraintTypes";

    pressureInlet
    {
        type            totalPressure;
        gamma           1;
        value           $internalField;
        p0              $internalField;
    }

    outlet
    {
        type fixedValue;
        value $internalField;
    }

    farfield
    {
        type freestreamPressure;
    }
}


// ************************************************************************* //
