/*--------------------------------*- C++ -*----------------------------------*\
| =========                 |                                                 |
| \\      /  F ield         | OpenFOAM: The Open Source CFD Toolbox           |
|  \\    /   O peration     | Version:  2.3.0                                   |
|   \\  /    A nd           | Web:      www.OpenFOAM.org                      |
|    \\/     M anipulation  |                                                 |
\*---------------------------------------------------------------------------*/
FoamFile
{
    version     2.0;
    format      ascii;
    class       dictionary;
    location    "system";
    object      fvSchemes;
}
// * * * * * * * * * * * * * * * * * * * * * * * * * * * * * * * * * * * * * //

Correction          corrected; //corrected 0.33;
ConvectionModel     Gauss;

ddtSchemes
{
    default         backward;
}

gradSchemes
{
    default         Gauss linear;
    gradLimiter         cellLimited Gauss linear 1;
}

divSchemes
{
    div(phi,U)          $ConvectionModel LUST unlimitedGrad(U);

    turbulence          $ConvectionModel linearUpwind gradLimiter;
    div(phi,k)          $turbulence;
    div(phi,epsilon)    $turbulence;
    div(phi,omega)      $turbulence;
    div(phi,nuTilda)    $turbulence;

    div(R)              Gauss linear;
    div((nuEff*dev(T(grad(U))))) Gauss linear;
    div((nuEff*dev2(T(grad(U))))) Gauss linear;
}

laplacianSchemes
{
    default                 Gauss linear $Correction;
}

interpolationSchemes
{
    default         linear;
}

snGradSchemes
{
    default         $Correction;
}

wallDist                                                                        
{                                                                               
    method          meshWave;                                                   
}                                                                               

fluxRequired
{
    default         no;
    pcorr;
    p;
    Phi;            // For v>2.3 of potentialFoam
}

wallDist
{
    method  meshWave;
}

// ************************************************************************* //
