/*--------------------------------*- C++ -*----------------------------------*\
| =========                 |                                                 |
| \\      /  F ield         | OpenFOAM: The Open Source CFD Toolbox           |
|  \\    /   O peration     | Version:  2.3.0                                   |
|   \\  /    A nd           | Web:      www.OpenFOAM.org                      |
|    \\/     M anipulation  |                                                 |
\*---------------------------------------------------------------------------*/
FoamFile
{
    version     2.0;
    format      ascii;
    class       dictionary;
    location    "system";
    object      fvSchemes;
}
// * * * * * * * * * * * * * * * * * * * * * * * * * * * * * * * * * * * * * //

Correction          corrected; //corrected 0.33;
DivMethod           Gauss;

ddtSchemes
{
    default         backward;
}

gradSchemes
{
    default             Gauss linear;
    gradLimiter         cellLimited Gauss linear 1;
}

divSchemes
{
    div(phi,U)          $DivMethod LUST unlimitedGrad(U);

    turbulence          $DivMethod linearUpwind gradLimiter;
    div(phi,k)          $turbulence;
    div(phi,epsilon)    $turbulence;
    div(phi,omega)      $turbulence;
    div(phi,nuTilda)    $turbulence;

    div(R)                          Gauss linear;
    div((nuEff*dev(T(grad(U)))))    Gauss linear;
    div((nuEff*dev2(T(grad(U)))))   Gauss linear;
}

laplacianSchemes
{
    default         Gauss linear $Correction;
}

interpolationSchemes
{
    default         linear;
}

snGradSchemes
{
    default         $Correction;
}

wallDist
{
    method          meshWave;
}

// ************************************************************************* //
