/*--------------------------------*- C++ -*----------------------------------*\
| =========                 |                                                 |
| \\      /  F ield         | OpenFOAM: The Open Source CFD Toolbox           |
|  \\    /   O peration     | Version:  1.6                                   |
|   \\  /    A nd           | Web:      www.OpenFOAM.org                      |
|    \\/     M anipulation  |                                                 |
\*---------------------------------------------------------------------------*/
FoamFile
{
    version     2.0;
    format      ascii;
    class       dictionary;
    location    "system";
    object      fvSolution;
}
// * * * * * * * * * * * * * * * * * * * * * * * * * * * * * * * * * * * * * //

#include "${FOAM_CASE}/setup.foam";

solvers
{
    p
    {
        $:solver.gamg;
    }

    U
    {
        $:solver.pbicg;
    }

    "(k|epsilon|omega|nuTilda)"
    {
        $:solver.pbicg;
    }

    /* For transient solvers */
    pFinal
    {
        $p;
        relTol 0;
    }

    UFinal
    {
        $U;
        relTol 0;
    }

    "(k|epsilon|omega|nuTilda)Final"
    {
        $:solver.pbicg;
    }

    Phi
    {
        $p;
    }

    cellDisplacement
    {
        $:solver.gamg;
        tolerance   1e-6;
        relTol      0;
    }
}

SIMPLE
{
    nNonOrthogonalCorrectors    1;
    pRefCell                    0;
    pRefValue                   $:pressure.ambient;

    residualControl
    {
        p                       1e-4;
        U                       1e-4;
        "(k|epsilon|omega)"     1e-3;
    }

}

potentialFlow
{
    nNonOrthogonalCorrectors    20;
    pRefCell                    0;
    pRefValue                   $:pressure.reference;
}

PISO
{
    nCorrectors                 2;
    nNonOrthogonalCorrectors    2;
    pRefCell                    0;
    pRefValue                   $:pressure.reference;
}

PIMPLE
{
    nOuterCorrectors            1;
    nCorrectors                 3;
    nNonOrthogonalCorrectors    1;
    pRefCell                    0;
    pRefValue                   $:pressure.reference;
}

relaxationFactors
{
    fields
    {
        p                           $:relaxation.pressure;
    };
    equations
    {
        U                           $:relaxation.velocity;
        "(k|epsilon|omega|nuTilda)" $:relaxation.turbulence;
    }
}

// ************************************************************************* //
