/*--------------------------------*- C++ -*----------------------------------*\
| =========                 |                                                 |
| \\      /  F ield         | OpenFOAM: The Open Source CFD Toolbox           |
|  \\    /   O peration     | Version:  2.2.0                                 |
|   \\  /    A nd           | Web:      www.OpenFOAM.org                      |
|    \\/     M anipulation  |                                                 |
\*---------------------------------------------------------------------------*/
FoamFile
{
    version     2.0;
    format      ascii;
    class       dictionary;
    object      extrudeMeshDict;
}
// * * * * * * * * * * * * * * * * * * * * * * * * * * * * * * * * * * * * * //

constructFrom mesh;

sourceCase "$FOAM_CASE";

sourcePatches (extrusionBase);

exposedPatchName cylinderTopWall;

flipNormals false;

extrudeModel        linearNormal;

nLayers             100;

expansionRatio      1.0;

linearNormalCoeffs
{
    thickness       0.095;
}

mergeFaces false;

mergeTol 1e-5;


// * * * * * * * * * * * * * * * * * * * * * * * * * * * * * * * * * * * * * //
