/*--------------------------------*- C++ -*----------------------------------*\
| =========                 |                                                 |
| \\      /  F ield         | OpenFOAM: The Open Source CFD Toolbox           |
|  \\    /   O peration     | Version:  2.2.0                                 |
|   \\  /    A nd           | Web:      www.OpenFOAM.org                      |
|    \\/     M anipulation  |                                                 |
\*---------------------------------------------------------------------------*/
FoamFile
{
    version     2.0;
    format      ascii;
    class       dictionary;
    object      extrudeMeshDict;
}
// * * * * * * * * * * * * * * * * * * * * * * * * * * * * * * * * * * * * * //

constructFrom mesh;

sourceCase "../submerged0991_mesh";

sourcePatches (outlet);

exposedPatchName outlet;

flipNormals false;

extrudeModel        linearNormal;

nLayers             10;

expansionRatio      1.15;

wedgeCoeffs
{
    axisPt      (0 0.1 -0.05);
    axis        (-1 0 0);
    angle       360;  // For nLayers=1 assume symmetry so angle/2 on each side
}

linearNormalCoeffs
{
    thickness       1;
}

linearDirectionCoeffs
{
    direction       (0 1 0);
    thickness       0.05;
}

linearRadialCoeffs
{
    R               0.1;
    // Optional inner radius
    Rsurface        0.01;
}

radialCoeffs
{
    R               table ((0 0.01)(3 0.03)(10 0.1));
}


sigmaRadialCoeffs
{
    RTbyg           1;
    pRef            1;
    pStrat          1;
}

mergeFaces false; 

mergeTol 0;


// * * * * * * * * * * * * * * * * * * * * * * * * * * * * * * * * * * * * * //
