
/*--------------------------------*- C++ -*----------------------------------*\
|==========                 |                                                 |
| \      /  F ield         | OpenFOAM: The Open Source CFD Toolbox           |
|  \    /   O peration     | Version:  2.0.0                                 |
|   \  /    A nd           | Web:      www.OpenFOAM.org                      |
|    \/     M anipulation  |                                                 |
\*---------------------------------------------------------------------------*/
FoamFile
{
    version     2.0;
    format      ascii;
    class       dictionary;
    object      blockMeshDict;
}
// * * * * * * * * * * * * * * * * * * * * * * * * * * * * * * * * * * * * * //

convertToMeters 1.0;

vertices
(
	( -5.000000 -0.100000 -1.777000 )
	( 10.000000 -0.100000 -1.777000 )
	( 10.000000 0.100000 -1.777000 )
	( -5.000000 0.100000 -1.777000 )
	( -5.000000 -0.100000 1.000000 )
	( 10.000000 -0.100000 1.000000 )
	( 10.000000 0.100000 1.000000 )
	( -5.000000 0.100000 1.000000 )


);

blocks
(
    //hex (0 1 2 3 4 5 6 7) (50 1 10) simpleGrading (1 1 1)
    hex (0 1 2 3 4 5 6 7) (100 1 60) simpleGrading (1 1 1)
);

edges ();
boundary
(
    front2D
    {
        type empty;
        faces
        (
            (3 7 6 2)
        );
    }
    back2D
    {
        type empty;
        faces
        (
            (1 5 4 0)
        );
    }
    inlet
    {
        type patch;
        faces
        (
            (0 4 7 3)
        );
    }
    outlet
    {
        type patch;
        faces
        (
            (2 6 5 1)
        );
    }
    lowerSymmetry
    {
        type symmetryPlane;
        faces
        (
            (0 3 2 1)
        );
    }
    ambience
    {
        type patch;
        faces
        (
            (4 5 6 7)
        );
    }
);

mergePatchPairs ();

