/*--------------------------------*- C++ -*----------------------------------*\
| =========                 |                                                 |
| \\      /  F ield         | OpenFOAM: The Open Source CFD Toolbox           |
|  \\    /   O peration     | Version:  2.2.0                                 |
|   \\  /    A nd           | Web:      www.OpenFOAM.org                      |
|    \\/     M anipulation  |                                                 |
\*---------------------------------------------------------------------------*/
FoamFile
{
    version     2.0;
    format      ascii;
    class       dictionary;
    object      extrudeMeshDict;
}
// * * * * * * * * * * * * * * * * * * * * * * * * * * * * * * * * * * * * * //

constructFrom patch;

sourceCase "$PWD/tempCase";

sourcePatches (back2D);

exposedPatchName front2D;

flipNormals false;

extrudeModel        linearNormal;

nLayers             1;

expansionRatio      1.0;    //0.9;

linearNormalCoeffs
{
    thickness       0.05;
}

mergeFaces false;   //true;

mergeTol 0;


// * * * * * * * * * * * * * * * * * * * * * * * * * * * * * * * * * * * * * //
