/*--------------------------------*- C++ -*----------------------------------*\
| =========                 |                                                 |
| \\      /  F ield         | OpenFOAM: The Open Source CFD Toolbox           |
|  \\    /   O peration     | Version:  2.3.0                                 |
|   \\  /    A nd           | Web:      www.OpenFOAM.org                      |
|    \\/     M anipulation  |                                                 |
\*---------------------------------------------------------------------------*/
FoamFile
{
    version     2.0;
    format      ascii;
    class       dictionary;
    location    "system";
    object      fvSolution;
}
// * * * * * * * * * * * * * * * * * * * * * * * * * * * * * * * * * * * * * //


solvers
{
    "alpha.water.*"
    {
        nAlphaCorr      2;
        nAlphaSubCycles 3;
        cAlpha          1;
        icAlpha         0;

        MULESCorr       no;
        nLimiterIter    10;
        alphaApplyPrevCorr  yes;

        solver          smoothSolver;
        smoother        symGaussSeidel;
        tolerance       1e-8;
        relTol          0;
        minIter         1;
    }

    "pcorr.*"
    {
        solver          PCG;

        preconditioner
        {
            preconditioner  GAMG;

            smoother        GaussSeidel;
            agglomerator    faceAreaPair;
            mergeLevels     1;
            nCellsInCoarsestLevel 10;
            cacheAgglomeration true;

            tolerance       1e-8
            relTol          0;
        };

        tolerance       1e-8;
        relTol          0.01;
    };

    p_rgh
    {
        solver          GAMG;

        smoother        DIC;
        agglomerator    faceAreaPair;
        mergeLevels     1;
        nCellsInCoarsestLevel 10;
        cacheAgglomeration true;

        tolerance       1e-8;
        relTol          0.01;
    };

    p
    {
        $p_rgh;
    }

    p_rghFinal
    {
        $p_rgh;
        relTol          0;
    }

    "(U|k|omega|epsilon).*"
    {
        solver          smoothSolver;

        smoother        symGaussSeidel;
        nSweeps         1;

        tolerance       1e-7;
        relTol          0.1;
        minIter         1;
    };

    "cellDisplacement.*"
    {
        $p_rghFinal;
    }
}

PIMPLE
{
    momentumPredictor   yes;

    nOuterCorrectors    1;
    nCorrectors         2;
    nNonOrthogonalCorrectors 3;

    maxCo               0.7;
    maxAlphaCo          0.2;

    rDeltaTSmoothingCoeff 0.05;
    rDeltaTDampingCoeff 0.5;
    nAlphaSpreadIter    0;
    nAlphaSweepIter     0;
    maxDeltaT           1;
}

potentialFlow
{
    nNonOrthogonalCorrectors    20;
    pRefCell                    0;
    pRefValue                   0;
}


relaxationFactors
{
    fields
    {
            //p_rgh           0.5;
    }
    equations
    {
        ".*" 1;
    }
}

cache
{
    grad(U);
}


// ************************************************************************* //
