/*--------------------------------*- C++ -*----------------------------------*\
| =========                 |                                                 |
| \\      /  F ield         | OpenFOAM: The Open Source CFD Toolbox           |
|  \\    /   O peration     | Version:  1.6                                   |
|   \\  /    A nd           | Web:      www.OpenFOAM.org                      |
|    \\/     M anipulation  |                                                 |
\*---------------------------------------------------------------------------*/
FoamFile
{
    version     2.0;
    format      ascii;
    class       dictionary;
    location    "system";
    object      controlDict;
}
// * * * * * * * * * * * * * * * * * * * * * * * * * * * * * * * * * * * * * //

#include "$FOAM_CASE/setup.OpenFOAM"

startFrom       startTime;

startTime       0.0;

stopAt          endTime;

endTime         0.05;

deltaT          2.5e-6;

writeControl    adjustableRunTime;

writeInterval   1;

purgeWrite      0;

writeFormat     ascii;

writePrecision  8;

writeCompression compressed;

timeFormat      general;

timePrecision   6;

runTimeModifiable yes;

adjustTimeStep  no;
maxCo           0.1;
maxAlphaCo      0.1;

libs ("libinCylinder.so");

functions
{
//    #include "include/functionObjectFieldAverageI";
//    #include "include/functionObjectProbesI";
//    #include "include/functionObjectForceCoeffsI";
//    #include "include/functionObjectForcesI";
//    #include "include/functionObjectSlicePlaneI";
//    #include "include/functionObjectIsoSurfaceI";
};

// ************************************************************************* //
