/*--------------------------------*- C++ -*----------------------------------*\
| =========                 |                                                 |
| \\      /  F ield         | OpenFOAM: The Open Source CFD Toolbox           |
|  \\    /   O peration     | Version:  2.2.0                                 |
|   \\  /    A nd           | Web:      www.OpenFOAM.org                      |
|    \\/     M anipulation  |                                                 |
\*---------------------------------------------------------------------------*/
FoamFile
{
    version     2.0;
    format      ascii;
    class       dictionary;
    object      extrudeMeshDict;
}
// * * * * * * * * * * * * * * * * * * * * * * * * * * * * * * * * * * * * * //

constructFrom patch;

sourceCase "$PWD/tmp2";

sourcePatches (periodic0_2);

exposedPatchName periodic1_2;

flipNormals false;

extrudeModel        wedge;

nLayers             20;

expansionRatio      1;

wedgeCoeffs
{
    axisPt      (0 0 0);
    axis        (0 0 -1);
    angle       45;
}

mergeFaces false;

mergeTol 1e-5;


// * * * * * * * * * * * * * * * * * * * * * * * * * * * * * * * * * * * * * //
