/*--------------------------------*- C++ -*----------------------------------*\
| =========                 |                                                 |
| \\      /  F ield         | OpenFOAM: The Open Source CFD Toolbox           |
|  \\    /   O peration     | Version:  2.3.0                                 |
|   \\  /    A nd           | Web:      www.OpenFOAM.org                      |
|    \\/     M anipulation  |                                                 |
\*---------------------------------------------------------------------------*/
FoamFile
{
    version     2.0;
    format      ascii;
    class       dictionary;
    location    "constant";
    object      kinematicCloudProperties;
}
// * * * * * * * * * * * * * * * * * * * * * * * * * * * * * * * * * * * * * //

solution
{
    active          true;
    coupled         false;
    transient       yes;
    cellValueSourceCorrection off;
    maxCo           0.3;

    interpolationSchemes
    {
        rho             cell;
        U               cellPoint;
        mu              cell;
    }

    integrationSchemes
    {
        U               Euler;
    }
}

constantProperties
{
    rho0            1.2;
    youngsModulus   6e8;
    poissonsRatio   0.35;
}

subModels
{
    particleForces
    {
        sphereDrag;
        gravity;
    }

    injectionModels
    {
        model1
        {
            type            manualInjection;
            massTotal       0;
            parcelBasisType fixed;
            nParticle       1;
            SOI             0;
            positionsFile   "kinematicCloudPositions";
            U0              ( 0 0 0 );
            sizeDistribution
            {
                type        normal;
                normalDistribution
                {
                    minValue    0.5e-3;
                    maxValue    2.0e-3;
                    expectation 1.0e-3;
                    variance    1.0;
                }
                fixedValueDistribution
                {
                    value   0.005;
                }
            }
        }
    }

    dispersionModel none;

    patchInteractionModel none;

    surfaceFilmModel none;

    stochasticCollisionModel none;

    collisionModel none;

    pairCollisionCoeffs
    {
        // Maximum possible particle diameter expected at any time
        maxInteractionDistance  0.006;

        writeReferredParticleCloud no;

        pairModel pairSpringSliderDashpot;

        pairSpringSliderDashpotCoeffs
        {
            useEquivalentSize   no;
            alpha               0.12;
            b                   1.5;
            mu                  0.52;
            cohesionEnergyDensity 0;
            collisionResolutionSteps 12;
        };

        wallModel    wallLocalSpringSliderDashpot;

        wallLocalSpringSliderDashpotCoeffs
        {
            useEquivalentSize no;
            collisionResolutionSteps 12;
            ".*Wall"
            {
                youngsModulus   1e10;
                poissonsRatio   0.23;
                alpha           0.12;
                b               1.5;
                mu              0.43;
                cohesionEnergyDensity 0;
            }
            frontAndBack
            {
                youngsModulus   1e10;
                poissonsRatio   0.23;
                alpha           0.12;
                b               1.5;
                mu              0.1;
                cohesionEnergyDensity 0;
            }
        };
    }
}


cloudFunctions
{}


// ************************************************************************* //
