/*--------------------------------*- C++ -*----------------------------------*\
| =========                 |                                                 |
| \\      /  F ield         | OpenFOAM: The Open Source CFD Toolbox           |
|  \\    /   O peration     | Version:  2.1.0                                 |
|   \\  /    A nd           | Web:      www.OpenFOAM.org                      |
|    \\/     M anipulation  |                                                 |
\*---------------------------------------------------------------------------*/
FoamFile
{
    version     2.0;
    format      ascii;
    class       volScalarField;
    location    "0";
    object      p;
}
// * * * * * * * * * * * * * * * * * * * * * * * * * * * * * * * * * * * * * //

#include "${FOAM_CASE}/setup.foam";

dimensions      [ 1 -1 -2 0 0 0 0 ];

internalField   $pressure.ambient;

boundaryField
{
    ".*"
    {
        type fixedFluxPressure;
        value   $:pressure.ambient;
    }

    #include "${WM_PROJECT_DIR}/etc/caseDicts/setConstraintTypes";

    ambienceGroup
    {
        type            totalPressure;
        gamma           1;
        phi             phi;
        U               U;
        rho             rho;
        value           $:pressure.ambient;
        p0              $:pressure.ambient;
    }

    outflowGroup
    {
        type zeroGradient;
    }

    farfieldGroup
    {
        type freestreamPressure;
    }
}

// ************************************************************************* //
