
/*--------------------------------*- C++ -*----------------------------------*| =========                 |                                                 |
| \      /  F ield         | OpenFOAM: The Open Source CFD Toolbox           |
|  \    /   O peration     | Version:  2.3.0                                 |
|   \  /    A nd           | Web:      www.OpenFOAM.org                      |
|    \/     M anipulation  |                                                 |
\*---------------------------------------------------------------------------*/
FoamFile
{
    version     2.0;
    format      ascii;
    class       dictionary;
    location    "system";
    object      sampleDict;
}
// * * * * * * * * * * * * * * * * * * * * * * * * * * * * * * * * * * * * * //

interpolationScheme cellPoint;

setFormat       raw;

type    sets;

line
{
    type    uniform;
    axis    y;
    nPoints 100;
};

sets
(


    l0
    {
        $.line;
        start   ( 2 0 0.1 );
        end     ( 2 2 0.1 );
    }
    

    l1
    {
        $.line;
        start   ( 2 0 0.307142857143 );
        end     ( 2 2 0.307142857143 );
    }
    

    l2
    {
        $.line;
        start   ( 2 0 0.514285714286 );
        end     ( 2 2 0.514285714286 );
    }
    

    l3
    {
        $.line;
        start   ( 2 0 0.721428571429 );
        end     ( 2 2 0.721428571429 );
    }
    

    l4
    {
        $.line;
        start   ( 2 0 0.928571428571 );
        end     ( 2 2 0.928571428571 );
    }
    

    l5
    {
        $.line;
        start   ( 2 0 1.13571428571 );
        end     ( 2 2 1.13571428571 );
    }
    

    l6
    {
        $.line;
        start   ( 2 0 1.34285714286 );
        end     ( 2 2 1.34285714286 );
    }
    

    l7
    {
        $.line;
        start   ( 2 0 1.55 );
        end     ( 2 2 1.55 );
    }
    

    l8
    {
        $.line;
        start   ( 2 0 1.75714285714 );
        end     ( 2 2 1.75714285714 );
    }
    

    l9
    {
        $.line;
        start   ( 2 0 1.96428571429 );
        end     ( 2 2 1.96428571429 );
    }
    

    l10
    {
        $.line;
        start   ( 2 0 2.17142857143 );
        end     ( 2 2 2.17142857143 );
    }
    

    l11
    {
        $.line;
        start   ( 2 0 2.37857142857 );
        end     ( 2 2 2.37857142857 );
    }
    

    l12
    {
        $.line;
        start   ( 2 0 2.58571428571 );
        end     ( 2 2 2.58571428571 );
    }
    

    l13
    {
        $.line;
        start   ( 2 0 2.79285714286 );
        end     ( 2 2 2.79285714286 );
    }
    

    l14
    {
        $.line;
        start   ( 2 0 3.0 );
        end     ( 2 2 3.0 );
    }
    

    l15
    {
        $.line;
        start   ( 2 0 3.20714285714 );
        end     ( 2 2 3.20714285714 );
    }
    

    l16
    {
        $.line;
        start   ( 2 0 3.41428571429 );
        end     ( 2 2 3.41428571429 );
    }
    

    l17
    {
        $.line;
        start   ( 2 0 3.62142857143 );
        end     ( 2 2 3.62142857143 );
    }
    

    l18
    {
        $.line;
        start   ( 2 0 3.82857142857 );
        end     ( 2 2 3.82857142857 );
    }
    

    l19
    {
        $.line;
        start   ( 2 0 4.03571428571 );
        end     ( 2 2 4.03571428571 );
    }
    

    l20
    {
        $.line;
        start   ( 2 0 4.24285714286 );
        end     ( 2 2 4.24285714286 );
    }
    

    l21
    {
        $.line;
        start   ( 2 0 4.45 );
        end     ( 2 2 4.45 );
    }
    

    l22
    {
        $.line;
        start   ( 2 0 4.65714285714 );
        end     ( 2 2 4.65714285714 );
    }
    

    l23
    {
        $.line;
        start   ( 2 0 4.86428571429 );
        end     ( 2 2 4.86428571429 );
    }
    

    l24
    {
        $.line;
        start   ( 2 0 5.07142857143 );
        end     ( 2 2 5.07142857143 );
    }
    

    l25
    {
        $.line;
        start   ( 2 0 5.27857142857 );
        end     ( 2 2 5.27857142857 );
    }
    

    l26
    {
        $.line;
        start   ( 2 0 5.48571428571 );
        end     ( 2 2 5.48571428571 );
    }
    

    l27
    {
        $.line;
        start   ( 2 0 5.69285714286 );
        end     ( 2 2 5.69285714286 );
    }
    

);

fields          ( UMean UPrime2Mean );

// ************************************************************************* //


