/*--------------------------------*- C++ -*----------------------------------*\
| =========                 |                                                 |
| \\      /  F ield         | OpenFOAM: The Open Source CFD Toolbox           |
|  \\    /   O peration     | Version:  1.6                                   |
|   \\  /    A nd           | Web:      www.OpenFOAM.org                      |
|    \\/     M anipulation  |                                                 |
\*---------------------------------------------------------------------------*/
FoamFile
{
    version     2.0;
    format      ascii;
    class       dictionary;
    location    "system";
    object      fvSolution;
}
// * * * * * * * * * * * * * * * * * * * * * * * * * * * * * * * * * * * * * //

#include "${FOAM_CASE}/system/include/solvers"

solvers
{
    p
    {
        $gamg;
    }

    "(U|h|k|omega|epsilon)"
    {
        $gamg;
    }
}

SIMPLE
{
    nNonOrthogonalCorrectors 1;
    pRefCell        0;
    pRefValue       0;
    transonic       no;
    rhoMin          rhoMin [1 -3 0 0 0] 0.1;
    rhoMax          rhoMax [1 -3 0 0 0] 2.0;

    residualControl
    {
        p               1e-3;
        U               1e-4;
        "(k|epsilon|omega)" 1e-3;
    }

}

potentialFlow
{
    nNonOrthogonalCorrectors 10;
}

PISO
{
    nCorrectors     2;
    nNonOrthogonalCorrectors 2;
}

PIMPLE
{
    nOuterCorrectors 2;
    nCorrectors     2;
    nNonOrthogonalCorrectors 1;
    pRefCell        0;
    pRefValue       0;
}

relaxationFactors
{
    fields
    {
        p           0.7;
        rho         0.7;
    }
    equations
    {
        U           0.7;
        h           0.8;
        k           0.7;
        epsilon     0.7;
        omega       0.7;
    }
}


// ************************************************************************* //
