
/*--------------------------------*- C++ -*----------------------------------*\
|==========                 |                                                 |
| \      /  F ield         | OpenFOAM: The Open Source CFD Toolbox           |
|  \    /   O peration     | Version:  2.0.0                                 |
|   \  /    A nd           | Web:      www.OpenFOAM.org                      |
|    \/     M anipulation  |                                                 |
\*---------------------------------------------------------------------------*/
FoamFile
{
    version     2.0;
    format      ascii;
    class       dictionary;
    object      blockMeshDict;
}
// * * * * * * * * * * * * * * * * * * * * * * * * * * * * * * * * * * * * * //

convertToMeters 1.0;

vertices
(
	( -0.180000 -0.090000 0.000000 ) // 0
	( 0.419999 -0.090000 0.000000 )  // 1
	( 0.419999 0.090000 0.000000 )   // 2
	( -0.180000 0.090000 0.000000 )  // 3
	( -0.180000 -0.090000 0.180000 ) // 4
	( 0.419999 -0.090000 0.180000 )  // 5
	( 0.419999 0.090000 0.180000 )   // 6
	( -0.180000 0.090000 0.180000 )  // 7

);

blocks
(
    hex (0 1 2 3 4 5 6 7) (33 9 9) simpleGrading (1 1 1)
);

edges ();
boundary
(
    inlet
    {
        type patch;
        faces
        (
            (0 4 7 3)
        );
    }

    outlet
    {
        type patch;
        faces
        (
            (2 6 5 1)
        );
    }

    wall_ground
    {
        type wall;
        faces
        (
            (0 3 2 1)
        );
    }
    slip_sides
    {
        type wall;
        faces
        (
            (3 7 6 2)
            (1 5 4 0)
            (4 5 6 7)
        );
    }
);
mergePatchPairs ();

