/*--------------------------------*- C++ -*----------------------------------*\
| =========                 |                                                 |
| \\      /  F ield         | OpenFOAM: The Open Source CFD Toolbox           |
|  \\    /   O peration     | Version:  3.0.x                                 |
|   \\  /    A nd           | Web:      www.OpenFOAM.org                      |
|    \\/     M anipulation  |                                                 |
\*---------------------------------------------------------------------------*/
FoamFile
{
    version     2.0;
    format      ascii;
    class       dictionary;
    location    "constant";
    object      turbulenceProperties;
}
// * * * * * * * * * * * * * * * * * * * * * * * * * * * * * * * * * * * * * //

turbulence
{
    constants
    {
        Ck              0.07;
        Ce              1.048;
        Cw              0.5;
        Cmu             0.09;
        E               9.8;
        kappa           0.41;
        beta1           0.075;
        Ceps2           1.9;
    }
}

simulationType  LES;

LES
{
    LESModel            $__lesmodel;

    delta               $__deltamodel;

    printCoeffs         on;

    turbulence          on;

    WALECoeffs
    {
        
    }

    FOIWALECoeffs
    {
        $:turbulence.constants;
    }

    OEEVMCoeffs
    {
        $:turbulence.constants;
    }

    dynamicKEqnCoeffs
    {
        filter      simple;
    }

    SpalartAllmarasDDESCoeffs
    {
        $:turbulence.constants;
        sigmaNut        0.66666;
        Cb1             0.1355;
        Cb2             0.622;
        Cw2             0.3;
        Cw3             2.0;
        Cv1             7.1;
        Cs              0.3;
        CDES            0.65;
    }

    cubeRootVolCoeffs
    {
        deltaCoeff      1;
    }
    maxDeltaxyzCoeffs
    {
        deltaCoeff      1;
    }
    IDDESDeltaCoeffs
    {
        Cw             0.15;
    }


}


// ************************************************************************* //
