/*--------------------------------*- C++ -*----------------------------------*\
| =========                 |                                                 |
| \\      /  F ield         | OpenFOAM: The Open Source CFD Toolbox           |
|  \\    /   O peration     | Version:  3.0.x                                 |
|   \\  /    A nd           | Web:      www.OpenFOAM.org                      |
|    \\/     M anipulation  |                                                 |
\*---------------------------------------------------------------------------*/
FoamFile
{
    version     2.0;
    format      ascii;
    class       dictionary;
    location    "system";
    object      controlDict;
}
// * * * * * * * * * * * * * * * * * * * * * * * * * * * * * * * * * * * * * //

libs            ("libFOIincompressibleTurbulenceModels.so" "libFOIturbulenceModels.so");

startFrom       startTime;

startTime       0;

stopAt          endTime;

endTime         2.5e-1;

deltaT          2.5e-3;

writeControl    adjustableRunTime;

writeInterval   0.1;

purgeWrite      0;

writeFormat     ascii;

writePrecision  6;

writeCompression off;

timeFormat      general;

timePrecision   6;

runTimeModifiable true;

functions
{
    forces
    {
        type                forces;
        functionObjectLibs  ("libforces.so");
        outputControl       timeStep;
        outputInterval      1;
        log                 false;
        patches             (movingWall);
        pName               p;
        UName               U;
        rhoName             rhoInf;
        log                 true;
        rhoInf              1;
        CofR                (0 0 0);
    }
}


// ************************************************************************* //
